REMARK  9 active torsions:
REMARK  status: ('A' for Active; 'I' for Inactive)
REMARK    1  A    between atoms: CAC_2  and  NBH_31 
REMARK    2  A    between atoms: CAC_2  and  CAM_9 
REMARK    3  A    between atoms: CAM_9  and  CAN_10 
REMARK    4  A    between atoms: CAN_10  and  OAW_23 
REMARK    5  A    between atoms: CAX_16  and  O02_36 
REMARK    6  A    between atoms: NAU_21  and  CBB_25 
REMARK    7  A    between atoms: NAU_21  and  CBE_28 
REMARK    8  A    between atoms: OAV_22  and  CBC_26 
REMARK    9  A    between atoms: OAW_23  and  CBD_27 
ROOT
HETATM    1  CAA DB8 A 601      -2.439  15.823 -52.615  1.00 22.69     0.210 C 
HETATM    2  OAV DB8 A 601      -1.768  14.604 -52.688  1.00 30.98    -0.353 OA
ENDROOT
BRANCH   2   3
HETATM    3  CBC DB8 A 601      -1.523  13.877 -51.545  1.00 23.70     0.102 A 
HETATM    4  CAL DB8 A 601      -2.029  14.442 -50.256  1.00 26.85     0.055 A 
HETATM    5  CBG DB8 A 601      -1.792  13.677 -48.989  1.00 29.83     0.024 A 
HETATM    6  CBE DB8 A 601      -2.323  14.244 -47.677  1.00 37.17     0.068 A 
HETATM    7  CBF DB8 A 601      -1.045  12.359 -48.992  1.00 28.08     0.071 A 
HETATM    8  CBA DB8 A 601      -2.047  13.438 -46.419  1.00 30.42     0.089 A 
HETATM    9  CAG DB8 A 601      -2.532  13.891 -45.081  1.00 31.24     0.103 C 
HETATM   10  CAH DB8 A 601      -1.302  12.144 -46.516  1.00 28.83     0.142 A 
HETATM   11  NAD DB8 A 601      -2.895  14.239 -44.070  1.00 32.70    -0.191 NA
HETATM   12  NAT DB8 A 601      -0.821  11.640 -47.769  1.00 34.24    -0.259 NA
HETATM   13  CAK DB8 A 601      -0.538  11.808 -50.305  1.00 26.08     0.072 A 
HETATM   14  CBD DB8 A 601      -0.780  12.583 -51.556  1.00 25.38     0.104 A 
BRANCH   6  15
HETATM   15  NAU DB8 A 601      -3.037  15.528 -47.704  1.00 42.81    -0.353 N 
HETATM   16  H26 DB8 A 601      -3.476  15.856 -48.552  1.00 42.81     0.166 HD
BRANCH  15  17
HETATM   17  CBB DB8 A 601      -3.098  16.314 -46.488  1.00 45.16     0.057 A 
HETATM   18  CAJ DB8 A 601      -1.826  16.646 -45.760  1.00 44.00     0.069 A 
HETATM   19  CAX DB8 A 601      -1.886  17.436 -44.492  1.00 48.51     0.092 A 
HETATM   20  CAY DB8 A 601      -3.217  17.893 -43.963  1.00 53.02     0.069 A 
HETATM   21  CAI DB8 A 601      -4.478  17.562 -44.688  1.00 46.30     0.052 A 
HETATM   22 CL1  DB8 A 601      -3.289  18.807 -42.499  1.00 53.68    -0.081 Cl
HETATM   23  CAZ DB8 A 601      -4.428  16.770 -45.953  1.00 49.16     0.062 A 
HETATM   24 CL2  DB8 A 601      -5.890  16.375 -46.802  1.00 67.83    -0.082 Cl
BRANCH  19  25
HETATM   25  O02 DB8 A 601      -0.723  17.749 -43.825  1.00 43.57    -0.354 OA
HETATM   26  C01 DB8 A 601       0.358  16.878 -43.861  1.00 43.07     0.210 C 
ENDBRANCH  19  25
ENDBRANCH  15  17
ENDBRANCH   6  15
BRANCH  14  27
HETATM   27  OAW DB8 A 601      -0.286  12.026 -52.728  1.00 39.27    -0.348 OA
BRANCH  27  28
HETATM   28  CAN DB8 A 601       0.736  11.074 -52.663  1.00 36.89     0.177 C 
BRANCH  28  29
HETATM   29  CAM DB8 A 601       0.743  10.325 -53.995  1.00 37.41     0.046 C 
BRANCH  29  30
HETATM   30  CAC DB8 A 601      -0.276  10.967 -54.926  1.00 48.04     0.119 C 
BRANCH  30  31
HETATM   31  NBH DB8 A 601      -0.243  10.244 -56.237  1.00 56.69    -0.409 N 
HETATM   32  CAP DB8 A 601      -1.308  10.319 -57.236  1.00 58.94     0.136 C 
HETATM   33  CAR DB8 A 601      -0.713   9.949 -58.605  1.00 60.67     0.135 C 
HETATM   34  NBI DB8 A 601      -0.079   8.660 -58.514  1.00 64.46    -0.414 N 
HETATM   35  CAO DB8 A 601      -0.798   7.509 -59.039  1.00 72.62     0.143 C 
HETATM   36  CAS DB8 A 601       0.921   8.559 -57.494  1.00 59.00     0.135 C 
HETATM   37  CAQ DB8 A 601       0.310   8.915 -56.178  1.00 59.44     0.136 C 
ENDBRANCH  30  31
ENDBRANCH  29  30
ENDBRANCH  28  29
ENDBRANCH  27  28
ENDBRANCH  14  27
ENDBRANCH   2   3
TORSDOF 9
