REMARK  Name = L186
REMARK  5 active torsions:
REMARK  status: ('A' for Active; 'I' for Inactive)
REMARK    1  A    between atoms: C_3  and  C_25
REMARK    2  A    between atoms: C_5  and  N_7
REMARK    3  A    between atoms: N_14  and  C_15
REMARK    4  A    between atoms: C_19  and  C_21
REMARK    5  A    between atoms: N_27  and  C_28
REMARK                            x       y       z     vdW  Elec       q    Type
REMARK                         _______ _______ _______ _____ _____    ______ ____
ROOT
ATOM      1  N   UNL     1      -1.663  -2.247   0.065  0.00  0.00    -0.284 N 
ATOM      2  C   UNL     1      -1.299  -3.594   0.174  0.00  0.00    +0.221 A 
ATOM      3  N   UNL     1      -2.119  -4.479  -0.406  0.00  0.00    -0.223 NA
ATOM      4  C   UNL     1      -1.712  -5.763  -0.412  0.00  0.00    +0.118 A 
ATOM      5  C   UNL     1      -0.526  -6.194   0.134  0.00  0.00    +0.063 A 
ATOM      6  C   UNL     1       0.234  -5.231   0.756  0.00  0.00    +0.128 A 
ATOM      7  N   UNL     1      -0.160  -3.951   0.777  0.00  0.00    -0.199 NA
ATOM      8  N   UNL     1       1.444  -5.602   1.388  0.00  0.00    -0.299 N 
ATOM      9  H   UNL     1      -2.478  -2.201  -0.530  0.00  0.00    +0.155 HD
ATOM     10  H   UNL     1       2.061  -6.061   0.727  0.00  0.00    +0.154 HD
ENDROOT
BRANCH   1  15
ATOM     11  C   UNL     1       1.236   0.048   0.677  0.00  0.00    +0.003 A 
ATOM     12  C   UNL     1       0.787   1.199   0.051  0.00  0.00    +0.013 A 
ATOM     13  C   UNL     1      -0.495   1.234  -0.510  0.00  0.00    +0.039 A 
ATOM     14  C   UNL     1      -1.311   0.092  -0.482  0.00  0.00    +0.036 A 
ATOM     15  C   UNL     1      -0.848  -1.099   0.102  0.00  0.00    +0.034 A 
ATOM     16  C   UNL     1       0.414  -1.078   0.717  0.00  0.00    +0.023 A 
BRANCH  13  17
ATOM     17  C   UNL     1      -0.896   2.489  -1.193  0.00  0.00    +0.248 C 
ATOM     18  O   UNL     1      -0.015   3.121  -1.762  0.00  0.00    -0.270 OA
ATOM     19  N   UNL     1      -2.225   2.863  -1.056  0.00  0.00    -0.282 N 
ATOM     20  H   UNL     1      -2.793   2.335  -0.408  0.00  0.00    +0.155 HD
BRANCH  19  21
ATOM     21  C   UNL     1      -2.796   4.041  -1.589  0.00  0.00    +0.034 A 
ATOM     22  C   UNL     1      -2.155   4.832  -2.549  0.00  0.00    +0.025 A 
ATOM     23  C   UNL     1      -2.738   6.014  -3.013  0.00  0.00    +0.022 A 
ATOM     24  C   UNL     1      -3.977   6.408  -2.523  0.00  0.00    +0.041 A 
ATOM     25  C   UNL     1      -4.641   5.621  -1.585  0.00  0.00    +0.022 A 
ATOM     26  C   UNL     1      -4.055   4.434  -1.125  0.00  0.00    +0.025 A 
ATOM     27 CL   UNL     1      -4.686   7.872  -3.080  0.00  0.00    -0.084 Cl
ENDBRANCH  19  21
ENDBRANCH  13  17
ENDBRANCH   1  15
BRANCH   8  28
ATOM     28  C   UNL     1       2.138  -4.821   2.341  0.00  0.00    +0.033 A 
ATOM     29  C   UNL     1       3.537  -4.795   2.363  0.00  0.00    +0.023 A 
ATOM     30  C   UNL     1       4.224  -4.041   3.322  0.00  0.00    +0.002 A 
ATOM     31  C   UNL     1       3.520  -3.316   4.284  0.00  0.00    +0.012 A 
ATOM     32  C   UNL     1       2.121  -3.338   4.296  0.00  0.00    +0.057 A 
ATOM     33  C   UNL     1       1.448  -4.098   3.326  0.00  0.00    +0.035 A 
BRANCH  32  34
ATOM     34  C   UNL     1       1.322  -2.576   5.321  0.00  0.00    +0.417 C 
ATOM     35  F   UNL     1       2.092  -1.883   6.207  0.00  0.00    -0.166 F 
ATOM     36  F   UNL     1       0.486  -1.658   4.761  0.00  0.00    -0.166 F 
ATOM     37  F   UNL     1       0.532  -3.390   6.077  0.00  0.00    -0.166 F 
ENDBRANCH  32  34
ENDBRANCH   8  28
TORSDOF 5
