REMARK  Name = L45
REMARK  6 active torsions:
REMARK  status: ('A' for Active; 'I' for Inactive)
REMARK    1  A    between atoms: C_1  and  C_2
REMARK    2  A    between atoms: C_10  and  S_18
REMARK    3  A    between atoms: S_18  and  C_19
REMARK    4  A    between atoms: C_22  and  N_25
REMARK    5  A    between atoms: N_25  and  C_26
REMARK    6  A    between atoms: C_27  and  C_29
REMARK                            x       y       z     vdW  Elec       q    Type
REMARK                         _______ _______ _______ _____ _____    ______ ____
ROOT
ATOM      1  C   UNL     1       6.389   0.073  -2.618  0.00  0.00    +0.065 C 
ATOM      2  C   UNL     1       5.182   0.208  -1.781  0.00  0.00    +0.035 A 
ATOM      3  C   UNL     1       4.573   1.319  -1.256  0.00  0.00    +0.068 A 
ATOM      4  C   UNL     1       3.450   0.846  -0.544  0.00  0.00    +0.146 A 
ATOM      5  N   UNL     1       3.372  -0.487  -0.604  0.00  0.00    -0.158 NA
ATOM      6  N   UNL     1       4.426  -0.849  -1.356  0.00  0.00    -0.280 N 
ATOM      7  N   UNL     1       2.581   1.601   0.152  0.00  0.00    -0.282 N 
ATOM      8  C   UNL     1       2.353   2.995   0.082  0.00  0.00    +0.136 A 
ATOM      9  N   UNL     1       2.848   3.683  -0.961  0.00  0.00    -0.206 NA
ATOM     10  C   UNL     1       2.674   5.007  -0.979  0.00  0.00    +0.195 A 
ATOM     11  N   UNL     1       2.045   5.713  -0.029  0.00  0.00    -0.221 NA
ATOM     12  C   UNL     1       1.555   5.029   1.006  0.00  0.00    +0.077 A 
ATOM     13  C   UNL     1       0.894   5.728   2.011  0.00  0.00    +0.028 A 
ATOM     14  C   UNL     1       0.347   5.088   3.127  0.00  0.00    +0.002 A 
ATOM     15  C   UNL     1       0.477   3.712   3.263  0.00  0.00    +0.001 A 
ATOM     16  C   UNL     1       1.146   2.992   2.280  0.00  0.00    +0.013 A 
ATOM     17  C   UNL     1       1.677   3.637   1.130  0.00  0.00    +0.041 A 
ATOM     18  H   UNL     1       4.573  -1.836  -1.535  0.00  0.00    +0.189 HD
ATOM     19  H   UNL     1       1.783   1.089   0.504  0.00  0.00    +0.155 HD
ENDROOT
BRANCH  10  20
ATOM     20  S   UNL     1       3.377   5.891  -2.350  0.00  0.00    -0.050 S 
BRANCH  20  21
ATOM     21  C   UNL     1       1.993   5.944  -3.469  0.00  0.00    +0.016 A 
ATOM     22  C   UNL     1       1.541   7.173  -3.938  0.00  0.00    +0.017 A 
ATOM     23  C   UNL     1       0.449   7.250  -4.817  0.00  0.00    +0.024 A 
ATOM     24  C   UNL     1      -0.216   6.104  -5.280  0.00  0.00    +0.036 A 
ATOM     25  C   UNL     1       0.274   4.870  -4.816  0.00  0.00    +0.024 A 
ATOM     26  C   UNL     1       1.362   4.789  -3.928  0.00  0.00    +0.017 A 
BRANCH  24  27
ATOM     27  N   UNL     1      -1.347   6.187  -6.185  0.00  0.00    -0.275 N 
ATOM     28  C   UNL     1      -2.282   5.064  -6.237  0.00  0.00    +0.138 C 
ATOM     29  C   UNL     1      -1.561   7.311  -7.007  0.00  0.00    +0.216 C 
ATOM     30  O   UNL     1      -0.829   8.302  -7.063  0.00  0.00    -0.276 OA
ATOM     31  C   UNL     1      -2.758   7.308  -7.942  0.00  0.00    +0.109 C 
ENDBRANCH  24  27
ENDBRANCH  20  21
ENDBRANCH  10  20
TORSDOF 3
