REMARK  Name = L80
REMARK  6 active torsions:
REMARK  status: ('A' for Active; 'I' for Inactive)
REMARK    1  A    between atoms: C_1  and  O_2
REMARK    2  A    between atoms: O_2  and  C_3
REMARK    3  A    between atoms: C_4  and  C_10
REMARK    4  A    between atoms: N_26  and  C_27
REMARK    5  A    between atoms: C_30  and  C_33
REMARK    6  A    between atoms: C_33  and  O_35
REMARK                            x       y       z     vdW  Elec       q    Type
REMARK                         _______ _______ _______ _____ _____    ______ ____
ROOT
ATOM      1  C   UNL     1       1.619  -2.320  -1.209  0.00  0.00    +0.080 C 
ATOM      2  N   UNL     1       0.594  -3.035  -0.881  0.00  0.00    -0.278 NA
ATOM      3  C   UNL     1      -0.586  -3.077  -1.726  0.00  0.00    +0.181 C 
ATOM      4  C   UNL     1      -0.311  -3.800  -2.993  0.00  0.00    +0.018 A 
ATOM      5  C   UNL     1      -0.896  -5.001  -3.294  0.00  0.00    +0.122 A 
ATOM      6  N   UNL     1      -0.651  -5.672  -4.425  0.00  0.00    -0.222 NA
ATOM      7  C   UNL     1       0.215  -5.135  -5.300  0.00  0.00    +0.220 A 
ATOM      8  N   UNL     1       0.813  -3.951  -5.109  0.00  0.00    -0.214 NA
ATOM      9  C   UNL     1       0.567  -3.306  -3.936  0.00  0.00    +0.082 A 
ATOM     10  C   UNL     1       1.239  -2.001  -3.753  0.00  0.00    +0.010 A 
ATOM     11  C   UNL     1       1.718  -1.521  -2.503  0.00  0.00    +0.011 A 
ATOM     12  C   UNL     1       2.302  -0.240  -2.435  0.00  0.00    +0.030 A 
ATOM     13  C   UNL     1       2.431   0.549  -3.577  0.00  0.00    +0.042 A 
ATOM     14  C   UNL     1       1.959   0.100  -4.802  0.00  0.00    +0.020 A 
ATOM     15  C   UNL     1       1.371  -1.162  -4.885  0.00  0.00    +0.012 A 
ATOM     16 CL   UNL     1       3.177   2.096  -3.470  0.00  0.00    -0.084 Cl
ATOM     17  N   UNL     1       0.496  -5.837  -6.476  0.00  0.00    -0.284 N 
ATOM     18  H   UNL     1       1.074  -5.309  -7.110  0.00  0.00    +0.155 HD
ENDROOT
BRANCH   1  20
ATOM     19  C   UNL     1       2.557  -2.275   1.188  0.00  0.00    +0.132 A 
ATOM     20  C   UNL     1       2.759  -2.268  -0.212  0.00  0.00    +0.077 A 
ATOM     21  C   UNL     1       4.077  -2.202  -0.686  0.00  0.00    +0.136 A 
ATOM     22  C   UNL     1       5.160  -2.037   0.177  0.00  0.00    +0.039 A 
ATOM     23  C   UNL     1       4.947  -1.958   1.546  0.00  0.00    +0.006 A 
ATOM     24  C   UNL     1       3.654  -2.090   2.049  0.00  0.00    +0.046 A 
ATOM     25  F   UNL     1       4.345  -2.290  -1.997  0.00  0.00    -0.205 F 
BRANCH  19  27
ATOM     26  C   UNL     1       1.180  -3.084   2.939  0.00  0.00    +0.277 C 
ATOM     27  O   UNL     1       1.285  -2.381   1.698  0.00  0.00    -0.494 OA
ENDBRANCH  19  27
ENDBRANCH   1  20
BRANCH  17  28
ATOM     28  C   UNL     1       0.379  -7.219  -6.683  0.00  0.00    +0.034 A 
ATOM     29  C   UNL     1       0.062  -7.719  -7.952  0.00  0.00    +0.024 A 
ATOM     30  C   UNL     1      -0.207  -9.085  -8.131  0.00  0.00    +0.017 A 
ATOM     31  C   UNL     1      -0.158  -9.964  -7.042  0.00  0.00    +0.059 A 
ATOM     32  C   UNL     1       0.225  -9.489  -5.789  0.00  0.00    +0.017 A 
ATOM     33  C   UNL     1       0.476  -8.127  -5.618  0.00  0.00    +0.024 A 
BRANCH  31  34
ATOM     34  C   UNL     1      -0.495 -11.393  -7.253  0.00  0.00    +0.337 C 
ATOM     35  O   UNL     1      -0.304 -11.967  -8.311  0.00  0.00    -0.245 OA
BRANCH  34  36
ATOM     36  O   UNL     1      -1.076 -11.982  -6.185  0.00  0.00    -0.477 OA
ATOM     37  H   UNL     1      -1.340 -11.378  -5.469  0.00  0.00    +0.295 HD
ENDBRANCH  34  36
ENDBRANCH  31  34
ENDBRANCH  17  28
TORSDOF 5
