REMARK  Name = L182
REMARK  3 active torsions:
REMARK  status: ('A' for Active; 'I' for Inactive)
REMARK    1  A    between atoms: C_4  and  N_7
REMARK    2  A    between atoms: N_14  and  C_15
REMARK    3  A    between atoms: C_19  and  C_21
REMARK                            x       y       z     vdW  Elec       q    Type
REMARK                         _______ _______ _______ _____ _____    ______ ____
ROOT
ATOM      1  N   UNL     1      -2.816   0.424  -0.037  0.00  0.00    -0.284 N 
ATOM      2  C   UNL     1      -3.710  -0.635  -0.249  0.00  0.00    +0.221 A 
ATOM      3  N   UNL     1      -4.413  -0.673  -1.394  0.00  0.00    -0.223 NA
ATOM      4  C   UNL     1      -5.295  -1.667  -1.543  0.00  0.00    +0.118 A 
ATOM      5  C   UNL     1      -5.512  -2.619  -0.585  0.00  0.00    +0.063 A 
ATOM      6  C   UNL     1      -4.735  -2.532   0.552  0.00  0.00    +0.128 A 
ATOM      7  N   UNL     1      -3.825  -1.551   0.723  0.00  0.00    -0.199 NA
ATOM      8  N   UNL     1      -4.926  -3.525   1.540  0.00  0.00    -0.299 N 
ATOM      9  H   UNL     1      -2.541   0.405   0.938  0.00  0.00    +0.155 HD
ATOM     10  H   UNL     1      -5.895  -3.580   1.827  0.00  0.00    +0.154 HD
ENDROOT
BRANCH   1  14
ATOM     11  C   UNL     1      -3.191   4.318  -1.625  0.00  0.00    +0.000 A 
ATOM     12  C   UNL     1      -4.335   3.597  -1.294  0.00  0.00    +0.002 A 
ATOM     13  C   UNL     1      -4.216   2.315  -0.754  0.00  0.00    +0.023 A 
ATOM     14  C   UNL     1      -2.959   1.724  -0.558  0.00  0.00    +0.034 A 
ATOM     15  C   UNL     1      -1.818   2.483  -0.841  0.00  0.00    +0.023 A 
ATOM     16  C   UNL     1      -1.933   3.765  -1.389  0.00  0.00    +0.002 A 
ENDBRANCH   1  14
BRANCH   8  17
ATOM     17  C   UNL     1      -4.008  -3.962   2.510  0.00  0.00    +0.033 A 
ATOM     18  C   UNL     1      -4.463  -4.384   3.764  0.00  0.00    +0.023 A 
ATOM     19  C   UNL     1      -3.575  -4.895   4.713  0.00  0.00    +0.002 A 
ATOM     20  C   UNL     1      -2.220  -5.012   4.409  0.00  0.00    +0.012 A 
ATOM     21  C   UNL     1      -1.738  -4.598   3.160  0.00  0.00    +0.057 A 
ATOM     22  C   UNL     1      -2.640  -4.059   2.228  0.00  0.00    +0.035 A 
BRANCH  21  23
ATOM     23  C   UNL     1      -0.286  -4.746   2.785  0.00  0.00    +0.417 C 
ATOM     24  F   UNL     1       0.470  -5.324   3.761  0.00  0.00    -0.166 F 
ATOM     25  F   UNL     1      -0.111  -5.519   1.677  0.00  0.00    -0.166 F 
ATOM     26  F   UNL     1       0.312  -3.554   2.510  0.00  0.00    -0.166 F 
ENDBRANCH  21  23
ENDBRANCH   8  17
TORSDOF 3
