REMARK  Name = L149
REMARK  6 active torsions:
REMARK  status: ('A' for Active; 'I' for Inactive)
REMARK    1  A    between atoms: C_1  and  C_2
REMARK    2  A    between atoms: C_4  and  C_7
REMARK    3  A    between atoms: C_7  and  N_8
REMARK    4  A    between atoms: N_11  and  C_14
REMARK    5  A    between atoms: C_22  and  C_24
REMARK    6  A    between atoms: C_27  and  C_29
REMARK                            x       y       z     vdW  Elec       q    Type
REMARK                         _______ _______ _______ _____ _____    ______ ____
ROOT
ATOM      1  C   UNL     1      -1.076  -6.989   0.547  0.00  0.00    +0.077 A 
ATOM      2  C   UNL     1       0.134  -7.523   1.043  0.00  0.00    +0.108 A 
ATOM      3  C   UNL     1       0.314  -8.864   1.360  0.00  0.00    +0.180 A 
ATOM      4  N   UNL     1      -0.645  -9.799   1.245  0.00  0.00    -0.233 NA
ATOM      5  C   UNL     1      -1.823  -9.309   0.807  0.00  0.00    +0.135 A 
ATOM      6  C   UNL     1      -2.091  -7.981   0.462  0.00  0.00    +0.082 A 
ATOM      7 CL   UNL     1      -3.741  -7.618   0.072  0.00  0.00    -0.080 Cl
ATOM      8  N   UNL     1       1.589  -9.129   1.788  0.00  0.00    -0.207 NA
ATOM      9  C   UNL     1       2.198  -7.962   1.764  0.00  0.00    +0.163 A 
ATOM     10  N   UNL     1       1.360  -6.977   1.313  0.00  0.00    -0.334 N 
ATOM     11  H   UNL     1       1.646  -6.017   1.189  0.00  0.00    +0.168 HD
ENDROOT
BRANCH   1  15
ATOM     12  N   UNL     1      -1.969  -2.916  -0.112  0.00  0.00    -0.294 NA
ATOM     13  C   UNL     1      -2.819  -3.992  -0.674  0.00  0.00    +0.103 C 
ATOM     14  C   UNL     1      -1.918  -5.208  -0.994  0.00  0.00    +0.120 C 
ATOM     15  N   UNL     1      -1.255  -5.655   0.251  0.00  0.00    -0.325 N 
ATOM     16  C   UNL     1      -0.507  -4.587   0.936  0.00  0.00    +0.120 C 
ATOM     17  C   UNL     1      -1.427  -3.370   1.176  0.00  0.00    +0.103 C 
BRANCH  12  18
ATOM     18  C   UNL     1      -2.636  -1.619  -0.037  0.00  0.00    +0.143 C 
BRANCH  18  22
ATOM     19  C   UNL     1      -1.993  -0.062  -4.859  0.00  0.00    +0.089 C 
ATOM     20  C   UNL     1      -2.422  -0.461  -3.508  0.00  0.00    +0.135 A 
ATOM     21  C   UNL     1      -1.781  -1.009  -2.429  0.00  0.00    +0.072 A 
ATOM     22  C   UNL     1      -2.779  -1.085  -1.428  0.00  0.00    +0.098 A 
ATOM     23  N   UNL     1      -3.959  -0.637  -1.883  0.00  0.00    -0.082 NA
ATOM     24  O   UNL     1      -3.729  -0.250  -3.193  0.00  0.00    -0.360 OA
ENDBRANCH  18  22
ENDBRANCH  12  18
ENDBRANCH   1  15
BRANCH   9  25
ATOM     25  C   UNL     1       3.609  -7.717   2.123  0.00  0.00    +0.149 A 
ATOM     26  N   UNL     1       4.134  -6.480   2.164  0.00  0.00    -0.075 NA
ATOM     27  O   UNL     1       5.473  -6.662   2.482  0.00  0.00    -0.359 OA
ATOM     28  C   UNL     1       5.731  -7.992   2.609  0.00  0.00    +0.135 A 
ATOM     29  C   UNL     1       4.572  -8.701   2.418  0.00  0.00    +0.078 A 
ATOM     30  C   UNL     1       7.129  -8.375   2.873  0.00  0.00    +0.089 C 
ENDBRANCH   9  25
TORSDOF 4
