REMARK  Name = L41
REMARK  11 active torsions:
REMARK  status: ('A' for Active; 'I' for Inactive)
REMARK    1  A    between atoms: C_1  and  C_2
REMARK    2  A    between atoms: C_2  and  C_3
REMARK    3  A    between atoms: N_5  and  C_6
REMARK    4  A    between atoms: C_9  and  S_12
REMARK    5  A    between atoms: S_12  and  C_13
REMARK    6  A    between atoms: C_15  and  N_29
REMARK    7  A    between atoms: N_22  and  C_25
REMARK    8  A    between atoms: C_25  and  C_26
REMARK    9  A    between atoms: C_25  and  C_27
REMARK   10  A    between atoms: C_25  and  C_28
REMARK   11  A    between atoms: C_33  and  C_35
REMARK                            x       y       z     vdW  Elec       q    Type
REMARK                         _______ _______ _______ _____ _____    ______ ____
ROOT
ATOM      1  C   UNL     1       5.010   7.285  -4.291  0.00  0.00    +0.196 A 
ATOM      2  N   UNL     1       4.132   7.793  -5.179  0.00  0.00    -0.206 NA
ATOM      3  C   UNL     1       3.357   8.801  -4.736  0.00  0.00    +0.130 A 
ATOM      4  C   UNL     1       3.533   9.332  -3.470  0.00  0.00    +0.087 A 
ATOM      5  C   UNL     1       4.463   8.758  -2.635  0.00  0.00    +0.128 A 
ATOM      6  N   UNL     1       5.186   7.711  -3.038  0.00  0.00    -0.207 NA
ATOM      7  N   UNL     1       4.698   9.256  -1.376  0.00  0.00    -0.313 N 
ATOM      8  C   UNL     1       5.045   8.316  -0.311  0.00  0.00    +0.122 C 
ATOM      9  C   UNL     1       6.057   8.909   0.685  0.00  0.00    +0.104 C 
ATOM     10  N   UNL     1       5.814  10.300   1.125  0.00  0.00    -0.295 NA
ATOM     11  C   UNL     1       5.716  11.124  -0.099  0.00  0.00    +0.104 C 
ATOM     12  C   UNL     1       4.649  10.695  -1.123  0.00  0.00    +0.122 C 
ENDROOT
BRANCH   3  13
ATOM     13  N   UNL     1       2.367   9.306  -5.604  0.00  0.00    -0.283 N 
ATOM     14  C   UNL     1       1.252  10.018  -5.300  0.00  0.00    +0.146 A 
ATOM     15  N   UNL     1       0.778  10.260  -4.074  0.00  0.00    -0.158 NA
ATOM     16  N   UNL     1      -0.328  10.984  -4.268  0.00  0.00    -0.280 N 
ATOM     17  C   UNL     1      -0.581  11.255  -5.579  0.00  0.00    +0.035 A 
ATOM     18  C   UNL     1       0.419  10.608  -6.280  0.00  0.00    +0.068 A 
ATOM     19  C   UNL     1      -1.723  12.093  -6.002  0.00  0.00    +0.065 C 
ATOM     20  H   UNL     1       2.466   8.874  -6.517  0.00  0.00    +0.155 HD
ATOM     21  H   UNL     1      -0.860  11.270  -3.453  0.00  0.00    +0.189 HD
ENDBRANCH   3  13
BRANCH  10  22
ATOM     22  C   UNL     1       4.789  10.517   2.179  0.00  0.00    +0.014 C 
ATOM     23  C   UNL     1       5.199   9.756   3.465  0.00  0.00    +0.027 C 
ATOM     24  C   UNL     1       4.759  12.016   2.562  0.00  0.00    +0.027 C 
ATOM     25  C   UNL     1       3.342  10.090   1.862  0.00  0.00    +0.027 C 
ENDBRANCH  10  22
BRANCH   1  26
ATOM     26  S   UNL     1       6.060   5.928  -4.782  0.00  0.00    -0.050 S 
BRANCH  26  30
ATOM     27  C   UNL     1       3.510   2.410  -3.248  0.00  0.00    +0.033 A 
ATOM     28  C   UNL     1       3.050   3.277  -4.241  0.00  0.00    +0.024 A 
ATOM     29  C   UNL     1       3.837   4.331  -4.699  0.00  0.00    +0.017 A 
ATOM     30  C   UNL     1       5.098   4.562  -4.162  0.00  0.00    +0.016 A 
ATOM     31  C   UNL     1       5.574   3.699  -3.167  0.00  0.00    +0.017 A 
ATOM     32  C   UNL     1       4.780   2.631  -2.706  0.00  0.00    +0.024 A 
BRANCH  27  35
ATOM     33  C   UNL     1       1.572   0.862  -3.365  0.00  0.00    +0.217 C 
ATOM     34  O   UNL     1       1.166   1.179  -4.480  0.00  0.00    -0.275 OA
ATOM     35  N   UNL     1       2.722   1.342  -2.759  0.00  0.00    -0.286 N 
ATOM     36  H   UNL     1       3.071   0.847  -1.946  0.00  0.00    +0.155 HD
BRANCH  33  38
ATOM     37  C   UNL     1      -0.424  -0.632  -3.256  0.00  0.00    +0.013 C 
ATOM     38  C   UNL     1       0.812  -0.138  -2.515  0.00  0.00    +0.093 C 
ENDBRANCH  33  38
ENDBRANCH  27  35
ENDBRANCH  26  30
ENDBRANCH   1  26
TORSDOF 6
