REMARK  Name = L76
REMARK  10 active torsions:
REMARK  status: ('A' for Active; 'I' for Inactive)
REMARK    1  A    between atoms: C_1  and  C_2
REMARK    2  A    between atoms: C_10  and  S_17
REMARK    3  A    between atoms: S_17  and  C_18
REMARK    4  A    between atoms: C_21  and  N_24
REMARK    5  A    between atoms: C_25  and  C_27
REMARK    6  A    between atoms: C_27  and  N_28
REMARK    7  A    between atoms: C_31  and  N_33
REMARK    8  A    between atoms: C_34  and  C_36
REMARK    9  A    between atoms: C_36  and  C_37
REMARK   10  A    between atoms: C_36  and  C_38
REMARK                            x       y       z     vdW  Elec       q    Type
REMARK                         _______ _______ _______ _____ _____    ______ ____
ROOT
ATOM      1  C   UNL     1       0.304   4.780   3.723  0.00  0.00    +0.016 A 
ATOM      2  C   UNL     1      -0.974   4.736   4.291  0.00  0.00    +0.017 A 
ATOM      3  C   UNL     1      -1.259   3.866   5.351  0.00  0.00    +0.024 A 
ATOM      4  C   UNL     1      -0.256   3.050   5.873  0.00  0.00    +0.033 A 
ATOM      5  C   UNL     1       1.031   3.107   5.334  0.00  0.00    +0.024 A 
ATOM      6  C   UNL     1       1.304   3.949   4.244  0.00  0.00    +0.017 A 
ENDROOT
BRANCH   4   7
ATOM      7  N   UNL     1      -0.540   2.217   6.976  0.00  0.00    -0.284 N 
ATOM      8  C   UNL     1      -1.070   0.941   6.763  0.00  0.00    +0.231 C 
ATOM      9  O   UNL     1      -1.433   0.517   5.668  0.00  0.00    -0.274 OA
ATOM     10  H   UNL     1       0.131   2.259   7.733  0.00  0.00    +0.155 HD
BRANCH   8  11
ATOM     11  C   UNL     1      -1.165   0.086   8.044  0.00  0.00    +0.180 C 
BRANCH  11  12
ATOM     12  N   UNL     1      -0.273  -1.094   8.105  0.00  0.00    -0.292 NA
ATOM     13  C   UNL     1       1.152  -0.786   7.987  0.00  0.00    +0.087 C 
ATOM     14  C   UNL     1       1.530  -1.112   6.553  0.00  0.00    +0.039 C 
ATOM     15  C   UNL     1       0.682  -2.338   6.240  0.00  0.00    +0.088 C 
ATOM     16  C   UNL     1      -0.578  -2.138   7.102  0.00  0.00    +0.107 C 
BRANCH  15  17
ATOM     17  N   UNL     1       1.412  -3.570   6.554  0.00  0.00    -0.311 N 
ATOM     18  C   UNL     1       2.297  -4.109   5.645  0.00  0.00    +0.216 C 
ATOM     19  O   UNL     1       2.468  -3.626   4.529  0.00  0.00    -0.276 OA
ATOM     20  H   UNL     1       1.469  -3.854   7.526  0.00  0.00    +0.149 HD
BRANCH  18  21
ATOM     21  C   UNL     1       3.087  -5.320   6.146  0.00  0.00    +0.069 C 
ATOM     22  C   UNL     1       2.163  -6.453   6.591  0.00  0.00    +0.017 C 
ATOM     23  C   UNL     1       4.040  -5.824   5.058  0.00  0.00    +0.017 C 
ENDBRANCH  18  21
ENDBRANCH  15  17
ENDBRANCH  11  12
ENDBRANCH   8  11
ENDBRANCH   4   7
BRANCH   1  24
ATOM     24  S   UNL     1       0.577   5.790   2.273  0.00  0.00    -0.048 S 
BRANCH  24  34
ATOM     25  C   UNL     1      -0.863   7.425   8.283  0.00  0.00    +0.065 C 
ATOM     26  C   UNL     1       0.307   8.087   7.673  0.00  0.00    +0.035 A 
ATOM     27  C   UNL     1       0.713   8.173   6.360  0.00  0.00    +0.068 A 
ATOM     28  C   UNL     1       1.949   8.863   6.383  0.00  0.00    +0.146 A 
ATOM     29  N   UNL     1       2.250   9.256   7.622  0.00  0.00    -0.158 NA
ATOM     30  N   UNL     1       1.254   8.762   8.381  0.00  0.00    -0.280 N 
ATOM     31  N   UNL     1       2.760   9.127   5.333  0.00  0.00    -0.281 N 
ATOM     32  C   UNL     1       2.828   8.320   4.213  0.00  0.00    +0.153 A 
ATOM     33  N   UNL     1       1.852   7.556   3.821  0.00  0.00    -0.203 NA
ATOM     34  C   UNL     1       1.981   6.761   2.715  0.00  0.00    +0.214 A 
ATOM     35  N   UNL     1       3.018   6.678   1.944  0.00  0.00    -0.139 NA
ATOM     36  N   UNL     1       4.032   7.461   2.325  0.00  0.00    -0.234 N 
ATOM     37  C   UNL     1       4.019   8.284   3.411  0.00  0.00    +0.105 A 
ATOM     38  C   UNL     1       5.253   8.902   3.503  0.00  0.00    +0.033 A 
ATOM     39  C   UNL     1       6.034   8.431   2.418  0.00  0.00    +0.022 A 
ATOM     40  C   UNL     1       5.248   7.553   1.704  0.00  0.00    +0.113 A 
ATOM     41  H   UNL     1       1.293   8.919   9.382  0.00  0.00    +0.189 HD
ATOM     42  H   UNL     1       3.599   9.632   5.575  0.00  0.00    +0.155 HD
ENDBRANCH  24  34
ENDBRANCH   1  24
TORSDOF 7
