REMARK  Name = L84
REMARK  1 active torsions:
REMARK  status: ('A' for Active; 'I' for Inactive)
REMARK    1  A    between atoms: C_15  and  C_17
REMARK                            x       y       z     vdW  Elec       q    Type
REMARK                         _______ _______ _______ _____ _____    ______ ____
ROOT
ATOM      1  C   UNL     1      -0.825  -1.844   0.859  0.00  0.00    +0.181 C 
ATOM      2  C   UNL     1      -1.500  -0.611   0.375  0.00  0.00    +0.018 A 
ATOM      3  C   UNL     1      -2.869  -0.472   0.347  0.00  0.00    +0.122 A 
ATOM      4  N   UNL     1      -3.499   0.656  -0.029  0.00  0.00    -0.223 NA
ATOM      5  C   UNL     1      -2.719   1.675  -0.385  0.00  0.00    +0.213 A 
ATOM      6  N   UNL     1      -1.387   1.634  -0.435  0.00  0.00    -0.214 NA
ATOM      7  C   UNL     1      -0.779   0.484  -0.055  0.00  0.00    +0.082 A 
ATOM      8  C   UNL     1       0.699   0.517  -0.038  0.00  0.00    +0.010 A 
ATOM      9  C   UNL     1       1.525  -0.601  -0.314  0.00  0.00    +0.011 A 
ATOM     10  C   UNL     1       2.925  -0.484  -0.189  0.00  0.00    +0.030 A 
ATOM     11  C   UNL     1       3.511   0.736   0.144  0.00  0.00    +0.042 A 
ATOM     12  C   UNL     1       2.721   1.847   0.396  0.00  0.00    +0.020 A 
ATOM     13  C   UNL     1       1.334   1.733   0.313  0.00  0.00    +0.012 A 
ATOM     14 CL   UNL     1       5.223   0.865   0.238  0.00  0.00    -0.084 Cl
ATOM     15  C   UNL     1       0.975  -1.946  -0.721  0.00  0.00    +0.076 C 
ATOM     16  N   UNL     1      -0.071  -2.497  -0.197  0.00  0.00    -0.278 NA
ATOM     17  N   UNL     1      -3.336   2.853  -0.749  0.00  0.00    -0.327 N 
ATOM     18  H   UNL     1      -4.279   2.658  -1.055  0.00  0.00    +0.145 HD
ATOM     19  H   UNL     1      -2.740   3.368  -1.381  0.00  0.00    +0.145 HD
ENDROOT
BRANCH  15  20
ATOM     20  C   UNL     1       1.682  -2.768  -1.768  0.00  0.00    +0.036 A 
ATOM     21  C   UNL     1       1.588  -4.168  -1.687  0.00  0.00    +0.013 A 
ATOM     22  C   UNL     1       2.242  -4.985  -2.614  0.00  0.00    +0.001 A 
ATOM     23  C   UNL     1       3.000  -4.412  -3.633  0.00  0.00    +0.003 A 
ATOM     24  C   UNL     1       3.083  -3.025  -3.737  0.00  0.00    +0.039 A 
ATOM     25  C   UNL     1       2.414  -2.211  -2.819  0.00  0.00    +0.133 A 
ATOM     26  F   UNL     1       2.497  -0.884  -2.984  0.00  0.00    -0.205 F 
ENDBRANCH  15  20
TORSDOF 1
