REMARK  Name = L46
REMARK  6 active torsions:
REMARK  status: ('A' for Active; 'I' for Inactive)
REMARK    1  A    between atoms: C_1  and  C_2
REMARK    2  A    between atoms: C_2  and  C_3
REMARK    3  A    between atoms: N_5  and  C_6
REMARK    4  A    between atoms: C_9  and  S_12
REMARK    5  A    between atoms: S_12  and  C_13
REMARK    6  A    between atoms: C_27  and  C_29
REMARK                            x       y       z     vdW  Elec       q    Type
REMARK                         _______ _______ _______ _____ _____    ______ ____
ROOT
ATOM      1  C   UNL     1       5.789   4.713   7.149  0.00  0.00    +0.195 A 
ATOM      2  N   UNL     1       5.624   5.623   8.118  0.00  0.00    -0.221 NA
ATOM      3  C   UNL     1       5.189   5.172   9.306  0.00  0.00    +0.077 A 
ATOM      4  C   UNL     1       4.988   6.062  10.359  0.00  0.00    +0.028 A 
ATOM      5  C   UNL     1       4.527   5.641  11.615  0.00  0.00    +0.002 A 
ATOM      6  C   UNL     1       4.259   4.299  11.840  0.00  0.00    +0.001 A 
ATOM      7  C   UNL     1       4.501   3.378  10.824  0.00  0.00    +0.013 A 
ATOM      8  C   UNL     1       4.976   3.816   9.564  0.00  0.00    +0.041 A 
ATOM      9  C   UNL     1       5.264   2.954   8.507  0.00  0.00    +0.136 A 
ATOM     10  N   UNL     1       5.562   3.406   7.289  0.00  0.00    -0.206 NA
ATOM     11  N   UNL     1       5.598   1.599   8.763  0.00  0.00    -0.282 N 
ATOM     12  C   UNL     1       5.380   0.614   7.869  0.00  0.00    +0.146 A 
ATOM     13  N   UNL     1       6.300  -0.251   7.444  0.00  0.00    -0.158 NA
ATOM     14  N   UNL     1       5.629  -1.028   6.573  0.00  0.00    -0.280 N 
ATOM     15  C   UNL     1       4.285  -0.780   6.548  0.00  0.00    +0.035 A 
ATOM     16  C   UNL     1       4.105   0.325   7.344  0.00  0.00    +0.068 A 
ATOM     17  C   UNL     1       3.312  -1.590   5.793  0.00  0.00    +0.065 C 
ATOM     18  H   UNL     1       6.588   1.628   8.994  0.00  0.00    +0.155 HD
ATOM     19  H   UNL     1       6.149  -1.732   6.057  0.00  0.00    +0.189 HD
ENDROOT
BRANCH   1  20
ATOM     20  S   UNL     1       6.672   5.168   5.666  0.00  0.00    -0.050 S 
BRANCH  20  24
ATOM     21  C   UNL     1       8.931   1.183   4.976  0.00  0.00    +0.033 A 
ATOM     22  C   UNL     1       8.013   1.668   4.040  0.00  0.00    +0.024 A 
ATOM     23  C   UNL     1       7.347   2.885   4.241  0.00  0.00    +0.017 A 
ATOM     24  C   UNL     1       7.595   3.646   5.381  0.00  0.00    +0.016 A 
ATOM     25  C   UNL     1       8.521   3.171   6.319  0.00  0.00    +0.017 A 
ATOM     26  C   UNL     1       9.174   1.941   6.124  0.00  0.00    +0.024 A 
BRANCH  21  29
ATOM     27  C   UNL     1       9.648  -0.846   3.703  0.00  0.00    +0.217 C 
ATOM     28  O   UNL     1       9.134  -0.569   2.615  0.00  0.00    -0.275 OA
ATOM     29  N   UNL     1       9.617  -0.047   4.833  0.00  0.00    -0.286 N 
ATOM     30  H   UNL     1      10.182  -0.339   5.621  0.00  0.00    +0.155 HD
BRANCH  27  32
ATOM     31  C   UNL     1      10.502  -2.935   2.604  0.00  0.00    +0.013 C 
ATOM     32  C   UNL     1      10.381  -2.156   3.908  0.00  0.00    +0.093 C 
ENDBRANCH  27  32
ENDBRANCH  21  29
ENDBRANCH  20  24
ENDBRANCH   1  20
TORSDOF 4
