REMARK  Name = L97
REMARK  6 active torsions:
REMARK  status: ('A' for Active; 'I' for Inactive)
REMARK    1  A    between atoms: N_3  and  C_16
REMARK    2  A    between atoms: N_6  and  C_7
REMARK    3  A    between atoms: C_7  and  C_8
REMARK    4  A    between atoms: C_24  and  C_26
REMARK    5  A    between atoms: C_29  and  C_32
REMARK    6  A    between atoms: C_32  and  N_33
REMARK                            x       y       z     vdW  Elec       q    Type
REMARK                         _______ _______ _______ _____ _____    ______ ____
ROOT
ATOM      1  C   UNL     1      -2.558   0.042   0.960  0.00  0.00    +0.077 A 
ATOM      2  C   UNL     1      -3.765   0.538   0.425  0.00  0.00    +0.108 A 
ATOM      3  C   UNL     1      -4.958   0.592   1.131  0.00  0.00    +0.180 A 
ATOM      4  N   UNL     1      -5.103   0.155   2.397  0.00  0.00    -0.233 NA
ATOM      5  C   UNL     1      -3.966  -0.337   2.932  0.00  0.00    +0.135 A 
ATOM      6  C   UNL     1      -2.723  -0.408   2.297  0.00  0.00    +0.082 A 
ATOM      7 CL   UNL     1      -1.410  -0.954   3.293  0.00  0.00    -0.080 Cl
ATOM      8  N   UNL     1      -5.959   1.146   0.393  0.00  0.00    -0.208 NA
ATOM      9  C   UNL     1      -5.428   1.444  -0.779  0.00  0.00    +0.141 A 
ATOM     10  N   UNL     1      -4.117   1.033  -0.811  0.00  0.00    -0.335 N 
ATOM     11  H   UNL     1      -3.512   1.083  -1.615  0.00  0.00    +0.167 HD
ENDROOT
BRANCH   1  14
ATOM     12  C   UNL     1       1.010  -0.491   0.540  0.00  0.00    +0.104 C 
ATOM     13  C   UNL     1      -0.410  -1.052   0.266  0.00  0.00    +0.120 C 
ATOM     14  N   UNL     1      -1.380   0.051   0.244  0.00  0.00    -0.325 N 
ATOM     15  C   UNL     1      -1.036   1.157  -0.663  0.00  0.00    +0.120 C 
ATOM     16  C   UNL     1       0.413   1.633  -0.415  0.00  0.00    +0.104 C 
ATOM     17  N   UNL     1       1.457   0.566  -0.411  0.00  0.00    -0.291 NA
BRANCH  17  18
ATOM     18  C   UNL     1       1.658  -0.014  -1.752  0.00  0.00    +0.181 C 
BRANCH  18  19
ATOM     19  C   UNL     1       2.076   1.050  -2.759  0.00  0.00    +0.233 C 
ATOM     20  O   UNL     1       1.303   1.361  -3.668  0.00  0.00    -0.274 OA
ATOM     21  N   UNL     1       3.325   1.568  -2.514  0.00  0.00    -0.264 N 
ATOM     22  C   UNL     1       3.856   2.550  -3.297  0.00  0.00    +0.164 A 
ATOM     23  N   UNL     1       3.282   3.230  -4.258  0.00  0.00    -0.233 NA
ATOM     24  C   UNL     1       4.202   4.071  -4.835  0.00  0.00    +0.120 A 
ATOM     25  C   UNL     1       5.473   4.011  -4.308  0.00  0.00    +0.068 A 
ATOM     26  S   UNL     1       5.495   2.909  -2.989  0.00  0.00    -0.061 S 
ATOM     27  H   UNL     1       3.874   1.225  -1.739  0.00  0.00    +0.157 HD
ENDBRANCH  18  19
ENDBRANCH  17  18
ENDBRANCH   1  14
BRANCH   9  28
ATOM     28  C   UNL     1      -6.135   2.106  -1.878  0.00  0.00    +0.017 A 
ATOM     29  C   UNL     1      -5.499   2.842  -2.889  0.00  0.00    +0.012 A 
ATOM     30  C   UNL     1      -6.253   3.563  -3.834  0.00  0.00    +0.005 A 
ATOM     31  C   UNL     1      -7.655   3.566  -3.782  0.00  0.00    -0.033 A 
ATOM     32  C   UNL     1      -8.282   2.782  -2.803  0.00  0.00    +0.005 A 
ATOM     33  C   UNL     1      -7.535   2.066  -1.870  0.00  0.00    +0.012 A 
BRANCH  31  34
ATOM     34  C   UNL     1      -8.494   4.484  -4.645  0.00  0.00    +0.119 C 
BRANCH  34  35
ATOM     35  N   UNL     1      -9.085   3.990  -5.883  0.00  0.00    -0.294 NA
ATOM     36  C   UNL     1      -9.840   2.737  -5.818  0.00  0.00    +0.113 C 
ATOM     37  C   UNL     1      -8.980   1.489  -6.068  0.00  0.00    +0.175 C 
ATOM     38  O   UNL     1      -8.303   1.578  -7.328  0.00  0.00    -0.377 OA
ATOM     39  C   UNL     1      -7.473   2.744  -7.388  0.00  0.00    +0.175 C 
ATOM     40  C   UNL     1      -8.247   4.036  -7.082  0.00  0.00    +0.113 C 
ENDBRANCH  34  35
ENDBRANCH  31  34
ENDBRANCH   9  28
TORSDOF 6
