REMARK  Name = L178
REMARK  5 active torsions:
REMARK  status: ('A' for Active; 'I' for Inactive)
REMARK    1  A    between atoms: C_3  and  C_25
REMARK    2  A    between atoms: C_5  and  N_7
REMARK    3  A    between atoms: N_14  and  C_15
REMARK    4  A    between atoms: C_19  and  C_21
REMARK    5  A    between atoms: C_25  and  O_27
REMARK                            x       y       z     vdW  Elec       q    Type
REMARK                         _______ _______ _______ _____ _____    ______ ____
ROOT
ATOM      1  N   UNL     1      -1.704  -2.226   0.190  0.00  0.00    -0.284 N 
ATOM      2  C   UNL     1      -1.282  -3.562   0.194  0.00  0.00    +0.221 A 
ATOM      3  N   UNL     1      -1.627  -4.317  -0.856  0.00  0.00    -0.223 NA
ATOM      4  C   UNL     1      -1.185  -5.588  -0.849  0.00  0.00    +0.118 A 
ATOM      5  C   UNL     1      -0.410  -6.122   0.152  0.00  0.00    +0.063 A 
ATOM      6  C   UNL     1      -0.124  -5.288   1.209  0.00  0.00    +0.128 A 
ATOM      7  N   UNL     1      -0.563  -4.021   1.229  0.00  0.00    -0.199 NA
ATOM      8  N   UNL     1       0.621  -5.793   2.301  0.00  0.00    -0.299 N 
ATOM      9  H   UNL     1      -2.075  -2.031  -0.733  0.00  0.00    +0.155 HD
ATOM     10  H   UNL     1       1.503  -6.181   1.989  0.00  0.00    +0.154 HD
ENDROOT
BRANCH   1  15
ATOM     11  C   UNL     1       1.065  -0.046   1.430  0.00  0.00    +0.003 A 
ATOM     12  C   UNL     1       0.342   1.040   1.910  0.00  0.00    +0.015 A 
ATOM     13  C   UNL     1      -1.053   1.051   1.808  0.00  0.00    +0.061 A 
ATOM     14  C   UNL     1      -1.722  -0.021   1.199  0.00  0.00    +0.038 A 
ATOM     15  C   UNL     1      -1.006  -1.145   0.764  0.00  0.00    +0.034 A 
ATOM     16  C   UNL     1       0.393  -1.128   0.864  0.00  0.00    +0.023 A 
BRANCH  13  17
ATOM     17  C   UNL     1      -1.774   2.233   2.342  0.00  0.00    +0.337 C 
ATOM     18  O   UNL     1      -1.289   3.352   2.359  0.00  0.00    -0.245 OA
BRANCH  17  19
ATOM     19  O   UNL     1      -2.990   1.948   2.852  0.00  0.00    -0.477 OA
ATOM     20  H   UNL     1      -3.170   0.997   2.974  0.00  0.00    +0.295 HD
ENDBRANCH  17  19
ENDBRANCH  13  17
ENDBRANCH   1  15
BRANCH   8  21
ATOM     21  C   UNL     1       0.688  -5.206   3.583  0.00  0.00    +0.033 A 
ATOM     22  C   UNL     1       1.878  -5.227   4.320  0.00  0.00    +0.023 A 
ATOM     23  C   UNL     1       1.938  -4.661   5.598  0.00  0.00    +0.002 A 
ATOM     24  C   UNL     1       0.803  -4.081   6.164  0.00  0.00    +0.012 A 
ATOM     25  C   UNL     1      -0.404  -4.060   5.457  0.00  0.00    +0.057 A 
ATOM     26  C   UNL     1      -0.445  -4.628   4.175  0.00  0.00    +0.035 A 
BRANCH  25  27
ATOM     27  C   UNL     1      -1.656  -3.452   6.033  0.00  0.00    +0.417 C 
ATOM     28  F   UNL     1      -1.484  -2.931   7.280  0.00  0.00    -0.166 F 
ATOM     29  F   UNL     1      -2.149  -2.435   5.271  0.00  0.00    -0.166 F 
ATOM     30  F   UNL     1      -2.670  -4.356   6.147  0.00  0.00    -0.166 F 
ENDBRANCH  25  27
ENDBRANCH   8  21
TORSDOF 5
