REMARK  Name = L55
REMARK  7 active torsions:
REMARK  status: ('A' for Active; 'I' for Inactive)
REMARK    1  A    between atoms: C_1  and  C_2
REMARK    2  A    between atoms: C_2  and  C_3
REMARK    3  A    between atoms: N_5  and  C_6
REMARK    4  A    between atoms: C_9  and  S_12
REMARK    5  A    between atoms: S_12  and  C_13
REMARK    6  A    between atoms: C_15  and  C_26
REMARK    7  A    between atoms: C_23  and  C_25
REMARK                            x       y       z     vdW  Elec       q    Type
REMARK                         _______ _______ _______ _____ _____    ______ ____
ROOT
ATOM      1  C   UNL     1       5.476   3.190  -7.716  0.00  0.00    +0.195 A 
ATOM      2  N   UNL     1       4.777   2.945  -8.836  0.00  0.00    -0.221 NA
ATOM      3  C   UNL     1       4.071   3.966  -9.349  0.00  0.00    +0.077 A 
ATOM      4  C   UNL     1       4.088   5.210  -8.761  0.00  0.00    +0.072 A 
ATOM      5  C   UNL     1       4.855   5.398  -7.631  0.00  0.00    +0.129 A 
ATOM      6  N   UNL     1       5.531   4.378  -7.079  0.00  0.00    -0.206 NA
ATOM      7  N   UNL     1       4.956   6.659  -7.016  0.00  0.00    -0.283 N 
ATOM      8  C   UNL     1       4.686   7.883  -7.531  0.00  0.00    +0.146 A 
ATOM      9  N   UNL     1       4.372   8.162  -8.799  0.00  0.00    -0.158 NA
ATOM     10  N   UNL     1       4.204   9.485  -8.834  0.00  0.00    -0.280 N 
ATOM     11  C   UNL     1       4.370  10.087  -7.622  0.00  0.00    +0.035 A 
ATOM     12  C   UNL     1       4.717   9.071  -6.758  0.00  0.00    +0.068 A 
ATOM     13  C   UNL     1       4.175  11.541  -7.438  0.00  0.00    +0.065 C 
ATOM     14  H   UNL     1       5.481   6.572  -6.154  0.00  0.00    +0.155 HD
ATOM     15  H   UNL     1       3.964   9.912  -9.723  0.00  0.00    +0.189 HD
ENDROOT
BRANCH   3  16
ATOM     16  C   UNL     1       3.316   3.714 -10.592  0.00  0.00    +0.001 A 
ATOM     17  C   UNL     1       2.118   4.399 -10.880  0.00  0.00    +0.010 A 
ATOM     18  C   UNL     1       1.451   4.226 -12.095  0.00  0.00    +0.001 A 
ATOM     19  C   UNL     1       1.963   3.351 -13.046  0.00  0.00    +0.000 A 
ATOM     20  C   UNL     1       3.131   2.641 -12.777  0.00  0.00    +0.001 A 
ATOM     21  C   UNL     1       3.797   2.818 -11.561  0.00  0.00    +0.010 A 
ENDBRANCH   3  16
BRANCH   1  22
ATOM     22  S   UNL     1       6.418   1.857  -6.991  0.00  0.00    -0.050 S 
BRANCH  22  26
ATOM     23  C   UNL     1       5.862  -1.560 -10.034  0.00  0.00    +0.033 A 
ATOM     24  C   UNL     1       6.870  -0.605 -10.198  0.00  0.00    +0.024 A 
ATOM     25  C   UNL     1       7.042   0.431  -9.274  0.00  0.00    +0.017 A 
ATOM     26  C   UNL     1       6.196   0.540  -8.171  0.00  0.00    +0.016 A 
ATOM     27  C   UNL     1       5.188  -0.414  -7.996  0.00  0.00    +0.017 A 
ATOM     28  C   UNL     1       5.012  -1.448  -8.928  0.00  0.00    +0.024 A 
BRANCH  23  31
ATOM     29  C   UNL     1       6.540  -3.023 -11.931  0.00  0.00    +0.217 C 
ATOM     30  O   UNL     1       7.677  -2.587 -12.090  0.00  0.00    -0.275 OA
ATOM     31  N   UNL     1       5.648  -2.621 -10.944  0.00  0.00    -0.286 N 
ATOM     32  H   UNL     1       4.820  -3.184 -10.806  0.00  0.00    +0.155 HD
BRANCH  29  34
ATOM     33  C   UNL     1       7.021  -4.539 -13.861  0.00  0.00    +0.013 C 
ATOM     34  C   UNL     1       5.977  -4.097 -12.846  0.00  0.00    +0.093 C 
ENDBRANCH  29  34
ENDBRANCH  23  31
ENDBRANCH  22  26
ENDBRANCH   1  22
TORSDOF 5
