REMARK  Name = L116
REMARK  7 active torsions:
REMARK  status: ('A' for Active; 'I' for Inactive)
REMARK    1  A    between atoms: C_1  and  C_2
REMARK    2  A    between atoms: C_4  and  C_7
REMARK    3  A    between atoms: C_7  and  N_8
REMARK    4  A    between atoms: N_11  and  C_14
REMARK    5  A    between atoms: C_22  and  C_24
REMARK    6  A    between atoms: C_27  and  C_30
REMARK    7  A    between atoms: C_30  and  N_31
REMARK                            x       y       z     vdW  Elec       q    Type
REMARK                         _______ _______ _______ _____ _____    ______ ____
ROOT
ATOM      1  C   UNL     1      -1.023  -6.945   0.583  0.00  0.00    +0.073 A 
ATOM      2  C   UNL     1      -0.347  -7.868  -0.243  0.00  0.00    +0.108 A 
ATOM      3  C   UNL     1      -0.157  -9.200   0.092  0.00  0.00    +0.180 A 
ATOM      4  N   UNL     1      -0.566  -9.754   1.251  0.00  0.00    -0.233 NA
ATOM      5  C   UNL     1      -1.202  -8.887   2.066  0.00  0.00    +0.130 A 
ATOM      6  C   UNL     1      -1.457  -7.538   1.796  0.00  0.00    +0.059 A 
ATOM      7 BR   UNL     1      -2.501  -6.657   3.132  0.00  0.00    -0.047 Br
ATOM      8  N   UNL     1       0.500  -9.879  -0.887  0.00  0.00    -0.208 NA
ATOM      9  C   UNL     1       0.749  -9.002  -1.845  0.00  0.00    +0.141 A 
ATOM     10  N   UNL     1       0.310  -7.760  -1.452  0.00  0.00    -0.335 N 
ATOM     11  H   UNL     1       0.454  -6.906  -1.966  0.00  0.00    +0.167 HD
ENDROOT
BRANCH   1  15
ATOM     12  N   UNL     1      -0.943  -2.939  -0.758  0.00  0.00    -0.294 NA
ATOM     13  C   UNL     1      -0.436  -3.291   0.587  0.00  0.00    +0.103 C 
ATOM     14  C   UNL     1      -1.191  -4.511   1.157  0.00  0.00    +0.120 C 
ATOM     15  N   UNL     1      -1.147  -5.629   0.200  0.00  0.00    -0.325 N 
ATOM     16  C   UNL     1      -1.585  -5.262  -1.160  0.00  0.00    +0.120 C 
ATOM     17  C   UNL     1      -0.726  -4.076  -1.662  0.00  0.00    +0.103 C 
BRANCH  12  18
ATOM     18  C   UNL     1      -0.410  -1.670  -1.248  0.00  0.00    +0.143 C 
BRANCH  18  22
ATOM     19  C   UNL     1      -3.671   1.489   1.096  0.00  0.00    +0.089 C 
ATOM     20  C   UNL     1      -2.552   0.731   0.513  0.00  0.00    +0.135 A 
ATOM     21  C   UNL     1      -2.467  -0.405  -0.247  0.00  0.00    +0.072 A 
ATOM     22  C   UNL     1      -1.079  -0.564  -0.489  0.00  0.00    +0.098 A 
ATOM     23  N   UNL     1      -0.369   0.403   0.107  0.00  0.00    -0.082 NA
ATOM     24  O   UNL     1      -1.300   1.215   0.737  0.00  0.00    -0.360 OA
ENDBRANCH  18  22
ENDBRANCH  12  18
ENDBRANCH   1  15
BRANCH   9  25
ATOM     25  C   UNL     1       1.427  -9.323  -3.108  0.00  0.00    +0.017 A 
ATOM     26  C   UNL     1       1.278  -8.602  -4.303  0.00  0.00    +0.012 A 
ATOM     27  C   UNL     1       1.869  -9.064  -5.504  0.00  0.00    +0.005 A 
ATOM     28  C   UNL     1       2.636 -10.243  -5.523  0.00  0.00    -0.033 A 
ATOM     29  C   UNL     1       2.797 -10.932  -4.317  0.00  0.00    +0.005 A 
ATOM     30  C   UNL     1       2.202 -10.481  -3.132  0.00  0.00    +0.012 A 
BRANCH  28  31
ATOM     31  C   UNL     1       3.142 -10.936  -6.780  0.00  0.00    +0.119 C 
BRANCH  31  32
ATOM     32  N   UNL     1       3.402 -10.121  -7.974  0.00  0.00    -0.296 NA
ATOM     33  C   UNL     1       4.593  -9.257  -7.856  0.00  0.00    +0.100 C 
ATOM     34  C   UNL     1       5.982  -9.930  -8.014  0.00  0.00    +0.096 C 
ATOM     35  N   UNL     1       6.105 -10.919  -9.090  0.00  0.00    -0.314 NA
ATOM     36  C   UNL     1       4.926 -11.779  -9.200  0.00  0.00    +0.096 C 
ATOM     37  C   UNL     1       3.590 -11.000  -9.157  0.00  0.00    +0.100 C 
ATOM     38  H   UNL     1       6.934 -11.493  -8.931  0.00  0.00    +0.122 HD
ENDBRANCH  31  32
ENDBRANCH  28  31
ENDBRANCH   9  25
TORSDOF 6
