REMARK  Name = L99
REMARK  6 active torsions:
REMARK  status: ('A' for Active; 'I' for Inactive)
REMARK    1  A    between atoms: N_3  and  C_13
REMARK    2  A    between atoms: N_6  and  C_7
REMARK    3  A    between atoms: C_7  and  C_8
REMARK    4  A    between atoms: C_21  and  C_23
REMARK    5  A    between atoms: C_26  and  C_29
REMARK    6  A    between atoms: C_29  and  N_30
REMARK                            x       y       z     vdW  Elec       q    Type
REMARK                         _______ _______ _______ _____ _____    ______ ____
ROOT
ATOM      1  C   UNL     1      -2.553   0.050   1.036  0.00  0.00    +0.073 A 
ATOM      2  C   UNL     1      -3.752   0.542   0.481  0.00  0.00    +0.108 A 
ATOM      3  C   UNL     1      -4.962   0.578   1.162  0.00  0.00    +0.180 A 
ATOM      4  N   UNL     1      -5.133   0.126   2.418  0.00  0.00    -0.233 NA
ATOM      5  C   UNL     1      -4.003  -0.350   2.975  0.00  0.00    +0.130 A 
ATOM      6  C   UNL     1      -2.742  -0.403   2.372  0.00  0.00    +0.059 A 
ATOM      7 BR   UNL     1      -1.337  -0.970   3.533  0.00  0.00    -0.047 Br
ATOM      8  N   UNL     1      -5.950   1.143   0.414  0.00  0.00    -0.208 NA
ATOM      9  C   UNL     1      -5.396   1.461  -0.740  0.00  0.00    +0.141 A 
ATOM     10  N   UNL     1      -4.087   1.048  -0.753  0.00  0.00    -0.335 N 
ATOM     11  H   UNL     1      -3.474   1.112  -1.548  0.00  0.00    +0.167 HD
ENDROOT
BRANCH   1  14
ATOM     12  C   UNL     1       1.024  -0.460   0.579  0.00  0.00    +0.103 C 
ATOM     13  C   UNL     1      -0.396  -1.031   0.357  0.00  0.00    +0.120 C 
ATOM     14  N   UNL     1      -1.350   0.091   0.360  0.00  0.00    -0.325 N 
ATOM     15  C   UNL     1      -1.038   1.136  -0.628  0.00  0.00    +0.120 C 
ATOM     16  C   UNL     1       0.432   1.607  -0.487  0.00  0.00    +0.103 C 
ATOM     17  N   UNL     1       1.450   0.532  -0.448  0.00  0.00    -0.294 NA
BRANCH  17  18
ATOM     18  C   UNL     1       1.611  -0.069  -1.785  0.00  0.00    +0.140 C 
BRANCH  18  19
ATOM     19  C   UNL     1       2.662  -1.139  -1.765  0.00  0.00    +0.062 A 
ATOM     20  C   UNL     1       4.000  -0.968  -1.456  0.00  0.00    +0.071 A 
ATOM     21  S   UNL     1       4.812  -2.474  -1.502  0.00  0.00    -0.084 S 
ATOM     22  C   UNL     1       3.335  -3.232  -1.928  0.00  0.00    +0.156 A 
ATOM     23  N   UNL     1       2.284  -2.450  -2.033  0.00  0.00    -0.251 NA
ENDBRANCH  18  19
ENDBRANCH  17  18
ENDBRANCH   1  14
BRANCH   9  24
ATOM     24  C   UNL     1      -6.090   2.127  -1.846  0.00  0.00    +0.017 A 
ATOM     25  C   UNL     1      -5.447   2.892  -2.830  0.00  0.00    +0.012 A 
ATOM     26  C   UNL     1      -6.199   3.604  -3.785  0.00  0.00    +0.005 A 
ATOM     27  C   UNL     1      -7.603   3.562  -3.772  0.00  0.00    -0.033 A 
ATOM     28  C   UNL     1      -8.232   2.756  -2.814  0.00  0.00    +0.005 A 
ATOM     29  C   UNL     1      -7.486   2.049  -1.871  0.00  0.00    +0.012 A 
BRANCH  27  30
ATOM     30  C   UNL     1      -8.445   4.465  -4.646  0.00  0.00    +0.119 C 
BRANCH  30  31
ATOM     31  N   UNL     1      -8.980   3.966  -5.907  0.00  0.00    -0.294 NA
ATOM     32  C   UNL     1      -9.709   2.695  -5.879  0.00  0.00    +0.113 C 
ATOM     33  C   UNL     1      -8.811   1.471  -6.109  0.00  0.00    +0.175 C 
ATOM     34  O   UNL     1      -8.099   1.586  -7.348  0.00  0.00    -0.377 OA
ATOM     35  C   UNL     1      -7.297   2.773  -7.379  0.00  0.00    +0.175 C 
ATOM     36  C   UNL     1      -8.106   4.045  -7.077  0.00  0.00    +0.113 C 
ENDBRANCH  30  31
ENDBRANCH  27  30
ENDBRANCH   9  24
TORSDOF 6
