REMARK  Name = L54
REMARK  7 active torsions:
REMARK  status: ('A' for Active; 'I' for Inactive)
REMARK    1  A    between atoms: C_1  and  C_2
REMARK    2  A    between atoms: C_2  and  C_3
REMARK    3  A    between atoms: N_5  and  C_6
REMARK    4  A    between atoms: C_9  and  S_12
REMARK    5  A    between atoms: S_12  and  C_13
REMARK    6  A    between atoms: C_15  and  N_23
REMARK    7  A    between atoms: C_27  and  C_29
REMARK                            x       y       z     vdW  Elec       q    Type
REMARK                         _______ _______ _______ _____ _____    ______ ____
ROOT
ATOM      1  C   UNL     1       5.053   7.479  -4.093  0.00  0.00    +0.196 A 
ATOM      2  N   UNL     1       4.162   7.972  -4.972  0.00  0.00    -0.206 NA
ATOM      3  C   UNL     1       3.366   8.961  -4.537  0.00  0.00    +0.130 A 
ATOM      4  C   UNL     1       3.513   9.486  -3.268  0.00  0.00    +0.087 A 
ATOM      5  C   UNL     1       4.465   8.942  -2.440  0.00  0.00    +0.127 A 
ATOM      6  N   UNL     1       5.240   7.931  -2.846  0.00  0.00    -0.207 NA
ATOM      7  N   UNL     1       4.604   9.400  -1.132  0.00  0.00    -0.315 N 
ATOM      8  C   UNL     1       5.537   9.034  -0.127  0.00  0.00    +0.108 C 
ATOM      9  C   UNL     1       4.725   9.929   0.819  0.00  0.00    +0.038 C 
ATOM     10  C   UNL     1       4.136  10.554  -0.452  0.00  0.00    +0.108 C 
ENDROOT
BRANCH   3  11
ATOM     11  N   UNL     1       2.383   9.428  -5.425  0.00  0.00    -0.283 N 
ATOM     12  C   UNL     1       1.239  10.103  -5.165  0.00  0.00    +0.146 A 
ATOM     13  N   UNL     1       0.721  10.362  -3.959  0.00  0.00    -0.158 NA
ATOM     14  N   UNL     1      -0.401  11.042  -4.203  0.00  0.00    -0.280 N 
ATOM     15  C   UNL     1      -0.624  11.272  -5.529  0.00  0.00    +0.035 A 
ATOM     16  C   UNL     1       0.407  10.633  -6.183  0.00  0.00    +0.068 A 
ATOM     17  C   UNL     1      -1.772  12.072  -6.007  0.00  0.00    +0.065 C 
ATOM     18  H   UNL     1       2.517   8.991  -6.329  0.00  0.00    +0.155 HD
ATOM     19  H   UNL     1      -0.962  11.336  -3.410  0.00  0.00    +0.189 HD
ENDBRANCH   3  11
BRANCH   1  20
ATOM     20  S   UNL     1       6.089   6.105  -4.553  0.00  0.00    -0.050 S 
BRANCH  20  24
ATOM     21  C   UNL     1       3.396   3.787  -7.460  0.00  0.00    +0.033 A 
ATOM     22  C   UNL     1       4.271   4.776  -7.911  0.00  0.00    +0.024 A 
ATOM     23  C   UNL     1       5.087   5.473  -7.020  0.00  0.00    +0.017 A 
ATOM     24  C   UNL     1       5.032   5.204  -5.658  0.00  0.00    +0.016 A 
ATOM     25  C   UNL     1       4.165   4.208  -5.194  0.00  0.00    +0.017 A 
ATOM     26  C   UNL     1       3.341   3.509  -6.089  0.00  0.00    +0.024 A 
BRANCH  21  29
ATOM     27  C   UNL     1       2.634   3.065  -9.715  0.00  0.00    +0.217 C 
ATOM     28  O   UNL     1       3.540   3.560 -10.373  0.00  0.00    -0.275 OA
ATOM     29  N   UNL     1       2.538   3.072  -8.331  0.00  0.00    -0.286 N 
ATOM     30  H   UNL     1       1.854   2.461  -7.904  0.00  0.00    +0.155 HD
BRANCH  27  32
ATOM     31  C   UNL     1       1.666   2.345 -11.903  0.00  0.00    +0.013 C 
ATOM     32  C   UNL     1       1.472   2.360 -10.392  0.00  0.00    +0.093 C 
ENDBRANCH  27  32
ENDBRANCH  21  29
ENDBRANCH  20  24
ENDBRANCH   1  20
TORSDOF 5
