REMARK  Name = L135
REMARK  5 active torsions:
REMARK  status: ('A' for Active; 'I' for Inactive)
REMARK    1  A    between atoms: C_1  and  C_2
REMARK    2  A    between atoms: C_4  and  C_7
REMARK    3  A    between atoms: C_7  and  N_8
REMARK    4  A    between atoms: N_11  and  C_14
REMARK    5  A    between atoms: C_22  and  C_24
REMARK                            x       y       z     vdW  Elec       q    Type
REMARK                         _______ _______ _______ _____ _____    ______ ____
ROOT
ATOM      1  C   UNL     1      -1.093  -6.993   0.558  0.00  0.00    +0.077 A 
ATOM      2  C   UNL     1       0.114  -7.531   1.051  0.00  0.00    +0.108 A 
ATOM      3  C   UNL     1       0.282  -8.867   1.405  0.00  0.00    +0.180 A 
ATOM      4  N   UNL     1      -0.695  -9.789   1.307  0.00  0.00    -0.233 NA
ATOM      5  C   UNL     1      -1.868  -9.295   0.861  0.00  0.00    +0.135 A 
ATOM      6  C   UNL     1      -2.121  -7.971   0.496  0.00  0.00    +0.082 A 
ATOM      7 CL   UNL     1      -3.770  -7.590   0.119  0.00  0.00    -0.080 Cl
ATOM      8  N   UNL     1       1.540  -9.116   1.879  0.00  0.00    -0.208 NA
ATOM      9  C   UNL     1       2.160  -7.956   1.842  0.00  0.00    +0.144 A 
ATOM     10  N   UNL     1       1.353  -6.994   1.299  0.00  0.00    -0.335 N 
ATOM     11  H   UNL     1       1.628  -6.040   1.135  0.00  0.00    +0.167 HD
ENDROOT
BRANCH   1  15
ATOM     12  N   UNL     1      -1.961  -2.913  -0.115  0.00  0.00    -0.294 NA
ATOM     13  C   UNL     1      -2.816  -3.988  -0.673  0.00  0.00    +0.103 C 
ATOM     14  C   UNL     1      -1.925  -5.211  -0.989  0.00  0.00    +0.120 C 
ATOM     15  N   UNL     1      -1.258  -5.657   0.253  0.00  0.00    -0.325 N 
ATOM     16  C   UNL     1      -0.514  -4.592   0.946  0.00  0.00    +0.120 C 
ATOM     17  C   UNL     1      -1.425  -3.368   1.175  0.00  0.00    +0.103 C 
BRANCH  12  18
ATOM     18  C   UNL     1      -2.631  -1.617  -0.037  0.00  0.00    +0.143 C 
BRANCH  18  22
ATOM     19  C   UNL     1      -2.042  -0.074  -4.872  0.00  0.00    +0.089 C 
ATOM     20  C   UNL     1      -2.453  -0.464  -3.513  0.00  0.00    +0.135 A 
ATOM     21  C   UNL     1      -1.798  -1.005  -2.439  0.00  0.00    +0.072 A 
ATOM     22  C   UNL     1      -2.788  -1.083  -1.428  0.00  0.00    +0.098 A 
ATOM     23  N   UNL     1      -3.973  -0.644  -1.873  0.00  0.00    -0.082 NA
ATOM     24  O   UNL     1      -3.757  -0.258  -3.186  0.00  0.00    -0.360 OA
ENDBRANCH  18  22
ENDBRANCH  12  18
ENDBRANCH   1  15
BRANCH   9  25
ATOM     25  C   UNL     1       3.541  -7.719   2.316  0.00  0.00    +0.055 A 
ATOM     26  C   UNL     1       4.385  -8.694   2.779  0.00  0.00    +0.206 A 
ATOM     27  O   UNL     1       5.576  -8.156   3.147  0.00  0.00    -0.470 OA
ATOM     28  C   UNL     1       5.488  -6.817   2.929  0.00  0.00    +0.195 A 
ATOM     29  C   UNL     1       4.247  -6.490   2.422  0.00  0.00    +0.052 A 
ENDBRANCH   9  25
TORSDOF 4
