REMARK  Name = L93
REMARK  9 active torsions:
REMARK  status: ('A' for Active; 'I' for Inactive)
REMARK    1  A    between atoms: C_1  and  C_2
REMARK    2  A    between atoms: C_4  and  C_7
REMARK    3  A    between atoms: C_7  and  N_8
REMARK    4  A    between atoms: N_11  and  C_14
REMARK    5  A    between atoms: C_22  and  C_24
REMARK    6  A    between atoms: C_28  and  C_30
REMARK    7  A    between atoms: C_30  and  N_31
REMARK    8  A    between atoms: N_31  and  C_32
REMARK    9  A    between atoms: N_31  and  C_33
REMARK                            x       y       z     vdW  Elec       q    Type
REMARK                         _______ _______ _______ _____ _____    ______ ____
ROOT
ATOM      1  C   UNL     1      -0.971  -7.000   0.549  0.00  0.00    +0.077 A 
ATOM      2  C   UNL     1      -0.533  -8.000  -0.343  0.00  0.00    +0.108 A 
ATOM      3  C   UNL     1      -0.460  -9.351  -0.024  0.00  0.00    +0.180 A 
ATOM      4  N   UNL     1      -0.827  -9.855   1.170  0.00  0.00    -0.233 NA
ATOM      5  C   UNL     1      -1.248  -8.919   2.045  0.00  0.00    +0.135 A 
ATOM      6  C   UNL     1      -1.326  -7.543   1.810  0.00  0.00    +0.082 A 
ATOM      7 CL   UNL     1      -1.742  -6.566   3.182  0.00  0.00    -0.080 Cl
ATOM      8  N   UNL     1       0.028 -10.095  -1.060  0.00  0.00    -0.208 NA
ATOM      9  C   UNL     1       0.267  -9.238  -2.031  0.00  0.00    +0.141 A 
ATOM     10  N   UNL     1      -0.118  -7.977  -1.650  0.00  0.00    -0.335 N 
ATOM     11  H   UNL     1      -0.118  -7.171  -2.257  0.00  0.00    +0.167 HD
ENDROOT
BRANCH   1  15
ATOM     12  N   UNL     1      -0.723  -2.811  -0.017  0.00  0.00    -0.294 NA
ATOM     13  C   UNL     1      -1.580  -3.405   1.040  0.00  0.00    +0.103 C 
ATOM     14  C   UNL     1      -2.113  -4.771   0.544  0.00  0.00    +0.120 C 
ATOM     15  N   UNL     1      -0.969  -5.655   0.238  0.00  0.00    -0.325 N 
ATOM     16  C   UNL     1      -0.001  -5.065  -0.702  0.00  0.00    +0.120 C 
ATOM     17  C   UNL     1       0.452  -3.677  -0.203  0.00  0.00    +0.103 C 
BRANCH  12  18
ATOM     18  C   UNL     1      -0.369  -1.416   0.244  0.00  0.00    +0.143 C 
BRANCH  18  22
ATOM     19  C   UNL     1      -4.628   0.811  -1.491  0.00  0.00    +0.089 C 
ATOM     20  C   UNL     1      -3.421   0.330  -0.800  0.00  0.00    +0.135 A 
ATOM     21  C   UNL     1      -2.468  -0.610  -1.093  0.00  0.00    +0.072 A 
ATOM     22  C   UNL     1      -1.581  -0.566   0.012  0.00  0.00    +0.098 A 
ATOM     23  N   UNL     1      -1.974   0.342   0.915  0.00  0.00    -0.082 NA
ATOM     24  O   UNL     1      -3.136   0.898   0.402  0.00  0.00    -0.360 OA
ENDBRANCH  18  22
ENDBRANCH  12  18
ENDBRANCH   1  15
BRANCH   9  25
ATOM     25  C   UNL     1       0.756  -9.547  -3.372  0.00  0.00    +0.018 A 
ATOM     26  C   UNL     1       1.612  -8.684  -4.069  0.00  0.00    +0.011 A 
ATOM     27  C   UNL     1       1.995  -8.978  -5.381  0.00  0.00    +0.001 A 
ATOM     28  C   UNL     1       1.515 -10.132  -6.005  0.00  0.00    +0.005 A 
ATOM     29  C   UNL     1       0.669 -11.016  -5.319  0.00  0.00    -0.033 A 
ATOM     30  C   UNL     1       0.316 -10.721  -3.995  0.00  0.00    +0.016 A 
BRANCH  29  31
ATOM     31  C   UNL     1       0.066 -12.233  -6.001  0.00  0.00    +0.119 C 
BRANCH  31  32
ATOM     32  N   UNL     1       1.059 -13.134  -6.615  0.00  0.00    -0.304 NA
ATOM     33  C   UNL     1       1.923 -13.755  -5.605  0.00  0.00    +0.104 C 
ATOM     34  C   UNL     1       0.349 -14.181  -7.357  0.00  0.00    +0.104 C 
ENDBRANCH  31  32
ENDBRANCH  29  31
ENDBRANCH   9  25
TORSDOF 6
