REMARK  Name = L59
REMARK  8 active torsions:
REMARK  status: ('A' for Active; 'I' for Inactive)
REMARK    1  A    between atoms: C_1  and  C_2
REMARK    2  A    between atoms: C_10  and  S_17
REMARK    3  A    between atoms: S_17  and  C_18
REMARK    4  A    between atoms: C_21  and  N_24
REMARK    5  A    between atoms: C_25  and  C_27
REMARK    6  A    between atoms: C_27  and  N_28
REMARK    7  A    between atoms: C_32  and  C_33
REMARK    8  A    between atoms: C_33  and  O_34
REMARK                            x       y       z     vdW  Elec       q    Type
REMARK                         _______ _______ _______ _____ _____    ______ ____
ROOT
ATOM      1  S   UNL     1       0.624   5.821   2.265  0.00  0.00    -0.048 S 
ENDROOT
BRANCH   1  11
ATOM      2  C   UNL     1       5.911   6.721   5.623  0.00  0.00    +0.065 C 
ATOM      3  C   UNL     1       4.884   7.779   5.692  0.00  0.00    +0.035 A 
ATOM      4  C   UNL     1       3.556   7.779   5.336  0.00  0.00    +0.068 A 
ATOM      5  C   UNL     1       3.088   9.093   5.576  0.00  0.00    +0.146 A 
ATOM      6  N   UNL     1       4.054   9.845   6.116  0.00  0.00    -0.158 NA
ATOM      7  N   UNL     1       5.128   9.038   6.157  0.00  0.00    -0.280 N 
ATOM      8  N   UNL     1       1.859   9.592   5.322  0.00  0.00    -0.281 N 
ATOM      9  C   UNL     1       1.046   9.105   4.315  0.00  0.00    +0.153 A 
ATOM     10  N   UNL     1       1.094   7.877   3.896  0.00  0.00    -0.203 NA
ATOM     11  C   UNL     1       0.314   7.457   2.855  0.00  0.00    +0.214 A 
ATOM     12  N   UNL     1      -0.568   8.161   2.221  0.00  0.00    -0.139 NA
ATOM     13  N   UNL     1      -0.661   9.422   2.661  0.00  0.00    -0.234 N 
ATOM     14  C   UNL     1       0.092   9.958   3.664  0.00  0.00    +0.105 A 
ATOM     15  C   UNL     1      -0.245  11.291   3.800  0.00  0.00    +0.033 A 
ATOM     16  C   UNL     1      -1.241  11.568   2.830  0.00  0.00    +0.022 A 
ATOM     17  C   UNL     1      -1.481  10.394   2.147  0.00  0.00    +0.113 A 
ATOM     18  H   UNL     1       5.999   9.418   6.512  0.00  0.00    +0.189 HD
ATOM     19  H   UNL     1       1.763  10.575   5.534  0.00  0.00    +0.155 HD
ENDBRANCH   1  11
BRANCH   1  20
ATOM     20  C   UNL     1       0.290   4.825   3.704  0.00  0.00    +0.016 A 
ATOM     21  C   UNL     1      -0.980   4.817   4.272  0.00  0.00    +0.017 A 
ATOM     22  C   UNL     1      -1.275   3.965   5.342  0.00  0.00    +0.024 A 
ATOM     23  C   UNL     1      -0.321   3.089   5.862  0.00  0.00    +0.033 A 
ATOM     24  C   UNL     1       0.967   3.114   5.306  0.00  0.00    +0.024 A 
ATOM     25  C   UNL     1       1.264   3.966   4.228  0.00  0.00    +0.017 A 
BRANCH  23  26
ATOM     26  N   UNL     1      -0.596   2.174   6.910  0.00  0.00    -0.284 N 
ATOM     27  C   UNL     1      -1.862   1.863   7.404  0.00  0.00    +0.231 C 
ATOM     28  O   UNL     1      -2.919   2.329   6.983  0.00  0.00    -0.274 OA
ATOM     29  H   UNL     1       0.188   1.644   7.266  0.00  0.00    +0.155 HD
BRANCH  27  30
ATOM     30  C   UNL     1      -1.872   0.827   8.542  0.00  0.00    +0.181 C 
BRANCH  30  31
ATOM     31  N   UNL     1      -2.461  -0.492   8.194  0.00  0.00    -0.289 NA
ATOM     32  C   UNL     1      -1.760  -1.159   7.090  0.00  0.00    +0.085 C 
ATOM     33  C   UNL     1      -2.578  -0.884   5.844  0.00  0.00    +0.017 C 
ATOM     34  C   UNL     1      -4.001  -0.904   6.360  0.00  0.00    +0.022 C 
ATOM     35  C   UNL     1      -3.903  -0.429   7.814  0.00  0.00    +0.083 C 
BRANCH  35  36
ATOM     36  C   UNL     1      -4.754  -1.334   8.727  0.00  0.00    +0.174 C 
BRANCH  36  37
ATOM     37  O   UNL     1      -4.678  -0.896  10.081  0.00  0.00    -0.393 OA
ATOM     38  H   UNL     1      -3.724  -0.831  10.265  0.00  0.00    +0.209 HD
ENDBRANCH  36  37
ENDBRANCH  35  36
ENDBRANCH  30  31
ENDBRANCH  27  30
ENDBRANCH  23  26
ENDBRANCH   1  20
TORSDOF 7
