REMARK  Name = L2
REMARK  4 active torsions:
REMARK  status: ('A' for Active; 'I' for Inactive)
REMARK    1  A    between atoms: C_1  and  N_2
REMARK    2  A    between atoms: N_2  and  C_3
REMARK    3  A    between atoms: C_6  and  N_9
REMARK    4  A    between atoms: N_9  and  C_10
REMARK                            x       y       z     vdW  Elec       q    Type
REMARK                         _______ _______ _______ _____ _____    ______ ____
ROOT
ATOM      1  C   UNL     1       4.657  -5.615   1.776  0.00  0.00    +0.044 A 
ATOM      2  C   UNL     1       5.015  -6.049   0.497  0.00  0.00    +0.046 A 
ATOM      3  C   UNL     1       5.348  -5.220  -0.663  0.00  0.00    -0.000 A 
ATOM      4  C   UNL     1       4.442  -4.435  -1.386  0.00  0.00    +0.009 A 
ATOM      5  C   UNL     1       4.874  -3.755  -2.536  0.00  0.00    +0.001 A 
ATOM      6  C   UNL     1       6.210  -3.811  -2.937  0.00  0.00    +0.001 A 
ATOM      7  C   UNL     1       7.095  -4.657  -2.279  0.00  0.00    +0.014 A 
ATOM      8  C   UNL     1       6.620  -5.414  -1.212  0.00  0.00    +0.047 A 
ATOM      9  C   UNL     1       7.280  -6.700  -0.884  0.00  0.00    +0.258 A 
ATOM     10  O   UNL     1       8.472  -6.875  -1.091  0.00  0.00    -0.267 OA
ATOM     11  N   UNL     1       6.382  -7.687  -0.509  0.00  0.00    -0.306 N 
ATOM     12  C   UNL     1       5.328  -7.407   0.371  0.00  0.00    +0.143 A 
ATOM     13  N   UNL     1       4.972  -8.379   1.232  0.00  0.00    -0.237 NA
ATOM     14  C   UNL     1       4.491  -7.935   2.405  0.00  0.00    +0.115 A 
ATOM     15  C   UNL     1       4.359  -6.603   2.732  0.00  0.00    +0.043 A 
ATOM     16  H   UNL     1       6.415  -8.592  -0.947  0.00  0.00    +0.170 HD
ENDROOT
BRANCH   1  17
ATOM     17  N   UNL     1       4.878  -4.282   2.175  0.00  0.00    -0.314 N 
ATOM     18  H   UNL     1       4.848  -3.587   1.428  0.00  0.00    +0.152 HD
BRANCH  17  22
ATOM     19  C   UNL     1       6.773  -3.035   5.802  0.00  0.00    +0.027 A 
ATOM     20  C   UNL     1       7.033  -4.301   5.229  0.00  0.00    +0.025 A 
ATOM     21  C   UNL     1       6.480  -4.696   4.017  0.00  0.00    +0.025 A 
ATOM     22  C   UNL     1       5.617  -3.856   3.304  0.00  0.00    +0.031 A 
ATOM     23  C   UNL     1       5.357  -2.595   3.827  0.00  0.00    +0.025 A 
ATOM     24  C   UNL     1       5.928  -2.194   5.055  0.00  0.00    +0.025 A 
BRANCH  19  26
ATOM     25  C   UNL     1       7.423  -1.401   7.482  0.00  0.00    +0.125 C 
ATOM     26  N   UNL     1       7.220  -2.762   7.078  0.00  0.00    -0.347 N 
ATOM     27  H   UNL     1       7.989  -3.356   7.355  0.00  0.00    +0.146 HD
ENDBRANCH  19  26
ENDBRANCH  17  22
ENDBRANCH   1  17
TORSDOF 3
