REMARK  Name = L126
REMARK  6 active torsions:
REMARK  status: ('A' for Active; 'I' for Inactive)
REMARK    1  A    between atoms: C_1  and  C_2
REMARK    2  A    between atoms: C_4  and  C_7
REMARK    3  A    between atoms: C_7  and  N_8
REMARK    4  A    between atoms: N_11  and  C_14
REMARK    5  A    between atoms: C_22  and  C_24
REMARK    6  A    between atoms: C_27  and  N_30
REMARK                            x       y       z     vdW  Elec       q    Type
REMARK                         _______ _______ _______ _____ _____    ______ ____
ROOT
ATOM      1  C   UNL     1      -1.040  -7.021   0.474  0.00  0.00    +0.073 A 
ATOM      2  C   UNL     1      -0.550  -8.013  -0.398  0.00  0.00    +0.108 A 
ATOM      3  C   UNL     1      -0.459  -9.362  -0.087  0.00  0.00    +0.180 A 
ATOM      4  N   UNL     1      -0.799  -9.873   1.112  0.00  0.00    -0.233 NA
ATOM      5  C   UNL     1      -1.274  -8.951   1.970  0.00  0.00    +0.130 A 
ATOM      6  C   UNL     1      -1.431  -7.580   1.717  0.00  0.00    +0.059 A 
ATOM      7 BR   UNL     1      -2.304  -6.618   3.115  0.00  0.00    -0.047 Br
ATOM      8  N   UNL     1       0.014 -10.098  -1.141  0.00  0.00    -0.208 NA
ATOM      9  C   UNL     1       0.222  -9.232  -2.117  0.00  0.00    +0.141 A 
ATOM     10  N   UNL     1      -0.006  -7.961  -1.657  0.00  0.00    -0.335 N 
ATOM     11  H   UNL     1       0.177  -7.120  -2.179  0.00  0.00    +0.167 HD
ENDROOT
BRANCH   1  15
ATOM     12  N   UNL     1      -0.648  -2.988  -0.800  0.00  0.00    -0.294 NA
ATOM     13  C   UNL     1      -0.073  -3.435   0.487  0.00  0.00    +0.103 C 
ATOM     14  C   UNL     1      -0.893  -4.599   1.083  0.00  0.00    +0.120 C 
ATOM     15  N   UNL     1      -1.030  -5.693   0.104  0.00  0.00    -0.325 N 
ATOM     16  C   UNL     1      -1.526  -5.238  -1.213  0.00  0.00    +0.120 C 
ATOM     17  C   UNL     1      -0.607  -4.108  -1.750  0.00  0.00    +0.103 C 
BRANCH  12  18
ATOM     18  C   UNL     1      -0.033  -1.754  -1.288  0.00  0.00    +0.143 C 
BRANCH  18  22
ATOM     19  C   UNL     1      -2.833   1.586   1.383  0.00  0.00    +0.089 C 
ATOM     20  C   UNL     1      -1.829   0.762   0.692  0.00  0.00    +0.135 A 
ATOM     21  C   UNL     1      -1.898  -0.342  -0.115  0.00  0.00    +0.072 A 
ATOM     22  C   UNL     1      -0.548  -0.618  -0.454  0.00  0.00    +0.098 A 
ATOM     23  N   UNL     1       0.284   0.258   0.125  0.00  0.00    -0.082 NA
ATOM     24  O   UNL     1      -0.526   1.123   0.845  0.00  0.00    -0.360 OA
ENDBRANCH  18  22
ENDBRANCH  12  18
ENDBRANCH   1  15
BRANCH   9  25
ATOM     25  C   UNL     1       0.668  -9.527  -3.471  0.00  0.00    +0.017 A 
ATOM     26  C   UNL     1       0.326  -8.711  -4.558  0.00  0.00    +0.013 A 
ATOM     27  C   UNL     1       0.772  -9.022  -5.852  0.00  0.00    +0.024 A 
ATOM     28  C   UNL     1       1.562 -10.153  -6.109  0.00  0.00    +0.030 A 
ATOM     29  C   UNL     1       1.887 -10.955  -5.005  0.00  0.00    +0.024 A 
ATOM     30  C   UNL     1       1.447 -10.658  -3.711  0.00  0.00    +0.013 A 
BRANCH  28  31
ATOM     31  N   UNL     1       2.022 -10.466  -7.370  0.00  0.00    -0.326 N 
ATOM     32  C   UNL     1       2.244  -9.468  -8.425  0.00  0.00    +0.133 C 
ATOM     33  C   UNL     1       1.270  -9.693  -9.590  0.00  0.00    +0.178 C 
ATOM     34  O   UNL     1       1.356 -11.037 -10.093  0.00  0.00    -0.377 OA
ATOM     35  C   UNL     1       1.033 -11.976  -9.054  0.00  0.00    +0.178 C 
ATOM     36  C   UNL     1       1.990 -11.858  -7.854  0.00  0.00    +0.133 C 
ENDBRANCH  28  31
ENDBRANCH   9  25
TORSDOF 5
