REMARK  Name = L65
REMARK  11 active torsions:
REMARK  status: ('A' for Active; 'I' for Inactive)
REMARK    1  A    between atoms: C_1  and  C_2
REMARK    2  A    between atoms: C_10  and  S_17
REMARK    3  A    between atoms: S_17  and  C_18
REMARK    4  A    between atoms: C_21  and  N_24
REMARK    5  A    between atoms: C_25  and  C_27
REMARK    6  A    between atoms: C_27  and  N_28
REMARK    7  A    between atoms: C_31  and  C_33
REMARK    8  A    between atoms: N_35  and  C_36
REMARK    9  A    between atoms: C_36  and  C_37
REMARK   10  A    between atoms: C_36  and  C_38
REMARK   11  A    between atoms: C_36  and  C_39
REMARK                            x       y       z     vdW  Elec       q    Type
REMARK                         _______ _______ _______ _____ _____    ______ ____
ROOT
ATOM      1  C   UNL     1       0.313   4.857   3.796  0.00  0.00    +0.016 A 
ATOM      2  C   UNL     1      -0.199   3.572   3.558  0.00  0.00    +0.017 A 
ATOM      3  C   UNL     1      -0.476   2.697   4.621  0.00  0.00    +0.024 A 
ATOM      4  C   UNL     1      -0.225   3.096   5.932  0.00  0.00    +0.033 A 
ATOM      5  C   UNL     1       0.274   4.375   6.183  0.00  0.00    +0.024 A 
ATOM      6  C   UNL     1       0.552   5.247   5.119  0.00  0.00    +0.017 A 
ENDROOT
BRANCH   4   7
ATOM      7  N   UNL     1      -0.483   2.231   7.010  0.00  0.00    -0.284 N 
ATOM      8  C   UNL     1       0.440   1.275   7.428  0.00  0.00    +0.231 C 
ATOM      9  O   UNL     1       1.534   1.107   6.897  0.00  0.00    -0.274 OA
ATOM     10  H   UNL     1      -1.414   2.248   7.407  0.00  0.00    +0.155 HD
BRANCH   8  11
ATOM     11  C   UNL     1      -0.007   0.453   8.652  0.00  0.00    +0.180 C 
BRANCH  11  12
ATOM     12  N   UNL     1       0.744   0.721   9.897  0.00  0.00    -0.293 NA
ATOM     13  C   UNL     1       0.706   2.122  10.325  0.00  0.00    +0.085 C 
ATOM     14  C   UNL     1       2.028   2.709   9.864  0.00  0.00    +0.029 C 
ATOM     15  C   UNL     1       3.007   1.571  10.138  0.00  0.00    +0.090 C 
ATOM     16  C   UNL     1       2.166   0.314   9.879  0.00  0.00    +0.097 C 
BRANCH  15  17
ATOM     17  C   UNL     1       3.528   1.661  11.574  0.00  0.00    +0.218 C 
ATOM     18  O   UNL     1       3.150   2.540  12.345  0.00  0.00    -0.275 OA
ATOM     19  N   UNL     1       4.477   0.723  11.931  0.00  0.00    -0.310 N 
ATOM     20  H   UNL     1       4.782   0.052  11.236  0.00  0.00    +0.149 HD
BRANCH  19  21
ATOM     21  C   UNL     1       5.074   0.655  13.280  0.00  0.00    +0.026 C 
ATOM     22  C   UNL     1       3.987   0.401  14.340  0.00  0.00    +0.031 C 
ATOM     23  C   UNL     1       6.074  -0.514  13.330  0.00  0.00    +0.031 C 
ATOM     24  C   UNL     1       5.845   1.946  13.616  0.00  0.00    +0.031 C 
ENDBRANCH  19  21
ENDBRANCH  15  17
ENDBRANCH  11  12
ENDBRANCH   8  11
ENDBRANCH   4   7
BRANCH   1  25
ATOM     25  S   UNL     1       0.770   5.895   2.414  0.00  0.00    -0.048 S 
BRANCH  25  35
ATOM     26  C   UNL     1      -4.762   3.898   4.907  0.00  0.00    +0.065 C 
ATOM     27  C   UNL     1      -4.718   5.283   4.401  0.00  0.00    +0.035 A 
ATOM     28  C   UNL     1      -3.652   6.069   4.046  0.00  0.00    +0.068 A 
ATOM     29  C   UNL     1      -4.190   7.307   3.630  0.00  0.00    +0.146 A 
ATOM     30  N   UNL     1      -5.521   7.303   3.756  0.00  0.00    -0.158 NA
ATOM     31  N   UNL     1      -5.816   6.066   4.198  0.00  0.00    -0.280 N 
ATOM     32  N   UNL     1      -3.500   8.390   3.216  0.00  0.00    -0.281 N 
ATOM     33  C   UNL     1      -2.128   8.422   3.083  0.00  0.00    +0.153 A 
ATOM     34  N   UNL     1      -1.424   7.356   2.837  0.00  0.00    -0.203 NA
ATOM     35  C   UNL     1      -0.062   7.415   2.748  0.00  0.00    +0.214 A 
ATOM     36  N   UNL     1       0.668   8.479   2.859  0.00  0.00    -0.139 NA
ATOM     37  N   UNL     1      -0.039   9.593   3.091  0.00  0.00    -0.234 N 
ATOM     38  C   UNL     1      -1.395   9.649   3.211  0.00  0.00    +0.105 A 
ATOM     39  C   UNL     1      -1.759  10.955   3.479  0.00  0.00    +0.033 A 
ATOM     40  C   UNL     1      -0.562  11.715   3.525  0.00  0.00    +0.022 A 
ATOM     41  C   UNL     1       0.479  10.847   3.272  0.00  0.00    +0.113 A 
ATOM     42  H   UNL     1      -6.791   5.829   4.345  0.00  0.00    +0.189 HD
ATOM     43  H   UNL     1      -4.008   9.262   3.179  0.00  0.00    +0.155 HD
ENDBRANCH  25  35
ENDBRANCH   1  25
TORSDOF 7
