REMARK  Name = L77
REMARK  7 active torsions:
REMARK  status: ('A' for Active; 'I' for Inactive)
REMARK    1  A    between atoms: C_1  and  C_2
REMARK    2  A    between atoms: C_10  and  S_17
REMARK    3  A    between atoms: S_17  and  C_18
REMARK    4  A    between atoms: C_21  and  N_24
REMARK    5  A    between atoms: C_25  and  C_27
REMARK    6  A    between atoms: C_27  and  N_28
REMARK    7  A    between atoms: C_31  and  O_33
REMARK                            x       y       z     vdW  Elec       q    Type
REMARK                         _______ _______ _______ _____ _____    ______ ____
ROOT
ATOM      1  S   UNL     1       0.593   5.819   2.271  0.00  0.00    -0.048 S 
ENDROOT
BRANCH   1  11
ATOM      2  C   UNL     1      -3.204   6.845   7.239  0.00  0.00    +0.065 C 
ATOM      3  C   UNL     1      -2.208   7.894   6.947  0.00  0.00    +0.035 A 
ATOM      4  C   UNL     1      -1.450   8.132   5.828  0.00  0.00    +0.068 A 
ATOM      5  C   UNL     1      -0.660   9.269   6.113  0.00  0.00    +0.146 A 
ATOM      6  N   UNL     1      -0.938   9.736   7.337  0.00  0.00    -0.158 NA
ATOM      7  N   UNL     1      -1.866   8.885   7.819  0.00  0.00    -0.280 N 
ATOM      8  N   UNL     1       0.269   9.833   5.312  0.00  0.00    -0.281 N 
ATOM      9  C   UNL     1       0.990   9.089   4.404  0.00  0.00    +0.153 A 
ATOM     10  N   UNL     1       0.532   8.002   3.840  0.00  0.00    -0.203 NA
ATOM     11  C   UNL     1       1.300   7.280   2.970  0.00  0.00    +0.214 A 
ATOM     12  N   UNL     1       2.487   7.587   2.566  0.00  0.00    -0.139 NA
ATOM     13  N   UNL     1       2.973   8.704   3.118  0.00  0.00    -0.234 N 
ATOM     14  C   UNL     1       2.321   9.481   4.026  0.00  0.00    +0.105 A 
ATOM     15  C   UNL     1       3.164  10.502   4.413  0.00  0.00    +0.033 A 
ATOM     16  C   UNL     1       4.380  10.325   3.703  0.00  0.00    +0.022 A 
ATOM     17  C   UNL     1       4.222   9.218   2.900  0.00  0.00    +0.113 A 
ATOM     18  H   UNL     1      -2.229   9.046   8.753  0.00  0.00    +0.189 HD
ATOM     19  H   UNL     1       0.718  10.644   5.702  0.00  0.00    +0.155 HD
ENDBRANCH   1  11
BRANCH   1  20
ATOM     20  C   UNL     1       0.324   4.776   3.691  0.00  0.00    +0.016 A 
ATOM     21  C   UNL     1      -0.938   4.729   4.274  0.00  0.00    +0.017 A 
ATOM     22  C   UNL     1      -1.197   3.888   5.363  0.00  0.00    +0.024 A 
ATOM     23  C   UNL     1      -0.216   3.040   5.890  0.00  0.00    +0.033 A 
ATOM     24  C   UNL     1       1.050   3.070   5.289  0.00  0.00    +0.024 A 
ATOM     25  C   UNL     1       1.314   3.923   4.192  0.00  0.00    +0.017 A 
BRANCH  23  26
ATOM     26  N   UNL     1      -0.480   2.172   6.980  0.00  0.00    -0.284 N 
ATOM     27  C   UNL     1      -1.694   2.040   7.654  0.00  0.00    +0.231 C 
ATOM     28  O   UNL     1      -2.739   2.638   7.406  0.00  0.00    -0.274 OA
ATOM     29  H   UNL     1       0.294   1.633   7.351  0.00  0.00    +0.155 HD
BRANCH  27  30
ATOM     30  C   UNL     1      -1.671   1.041   8.820  0.00  0.00    +0.180 C 
BRANCH  30  31
ATOM     31  N   UNL     1      -0.638   1.425   9.792  0.00  0.00    -0.291 NA
ATOM     32  C   UNL     1      -0.913   2.720  10.430  0.00  0.00    +0.087 C 
ATOM     33  C   UNL     1       0.082   2.719  11.572  0.00  0.00    +0.048 C 
ATOM     34  C   UNL     1       0.053   1.280  12.071  0.00  0.00    +0.130 C 
ATOM     35  C   UNL     1      -0.480   0.456  10.887  0.00  0.00    +0.116 C 
BRANCH  34  36
ATOM     36  O   UNL     1       1.350   0.867  12.480  0.00  0.00    -0.390 OA
ATOM     37  H   UNL     1       1.942   0.961  11.713  0.00  0.00    +0.210 HD
ENDBRANCH  34  36
ENDBRANCH  30  31
ENDBRANCH  27  30
ENDBRANCH  23  26
ENDBRANCH   1  20
TORSDOF 6
