REMARK  Name = L128
REMARK  10 active torsions:
REMARK  status: ('A' for Active; 'I' for Inactive)
REMARK    1  A    between atoms: C_1  and  C_2
REMARK    2  A    between atoms: C_4  and  C_7
REMARK    3  A    between atoms: C_7  and  N_8
REMARK    4  A    between atoms: N_11  and  C_14
REMARK    5  A    between atoms: C_22  and  C_24
REMARK    6  A    between atoms: C_27  and  N_30
REMARK    7  A    between atoms: N_33  and  C_36
REMARK    8  A    between atoms: C_36  and  C_37
REMARK    9  A    between atoms: C_37  and  O_38
REMARK   10  A    between atoms: O_38  and  C_39
REMARK                            x       y       z     vdW  Elec       q    Type
REMARK                         _______ _______ _______ _____ _____    ______ ____
ROOT
ATOM      1  C   UNL     1      -1.039  -6.991   0.487  0.00  0.00    +0.073 A 
ATOM      2  C   UNL     1      -0.551  -7.990  -0.376  0.00  0.00    +0.108 A 
ATOM      3  C   UNL     1      -0.473  -9.340  -0.051  0.00  0.00    +0.180 A 
ATOM      4  N   UNL     1      -0.814  -9.838   1.144  0.00  0.00    -0.233 NA
ATOM      5  C   UNL     1      -1.284  -8.910   1.998  0.00  0.00    +0.130 A 
ATOM      6  C   UNL     1      -1.434  -7.543   1.731  0.00  0.00    +0.059 A 
ATOM      7 BR   UNL     1      -2.309  -6.564   3.122  0.00  0.00    -0.047 Br
ATOM      8  N   UNL     1      -0.008 -10.088  -1.098  0.00  0.00    -0.208 NA
ATOM      9  C   UNL     1       0.200  -9.231  -2.077  0.00  0.00    +0.141 A 
ATOM     10  N   UNL     1      -0.011  -7.952  -1.634  0.00  0.00    -0.335 N 
ATOM     11  H   UNL     1       0.185  -7.121  -2.165  0.00  0.00    +0.167 HD
ENDROOT
BRANCH   1  15
ATOM     12  N   UNL     1      -0.474  -3.011  -0.826  0.00  0.00    -0.294 NA
ATOM     13  C   UNL     1       0.037  -3.459   0.487  0.00  0.00    +0.103 C 
ATOM     14  C   UNL     1      -0.857  -4.569   1.078  0.00  0.00    +0.120 C 
ATOM     15  N   UNL     1      -1.037  -5.667   0.111  0.00  0.00    -0.325 N 
ATOM     16  C   UNL     1      -1.454  -5.210  -1.231  0.00  0.00    +0.120 C 
ATOM     17  C   UNL     1      -0.455  -4.147  -1.755  0.00  0.00    +0.103 C 
BRANCH  12  18
ATOM     18  C   UNL     1       0.202  -1.809  -1.312  0.00  0.00    +0.143 C 
BRANCH  18  22
ATOM     19  C   UNL     1      -2.592   1.649   1.209  0.00  0.00    +0.089 C 
ATOM     20  C   UNL     1      -1.587   0.788   0.564  0.00  0.00    +0.135 A 
ATOM     21  C   UNL     1      -1.660  -0.327  -0.228  0.00  0.00    +0.072 A 
ATOM     22  C   UNL     1      -0.308  -0.644  -0.516  0.00  0.00    +0.098 A 
ATOM     23  N   UNL     1       0.528   0.219   0.076  0.00  0.00    -0.082 NA
ATOM     24  O   UNL     1      -0.282   1.117   0.755  0.00  0.00    -0.360 OA
ENDBRANCH  18  22
ENDBRANCH  12  18
ENDBRANCH   1  15
BRANCH   9  25
ATOM     25  C   UNL     1       0.649  -9.542  -3.425  0.00  0.00    +0.017 A 
ATOM     26  C   UNL     1       0.293  -8.758  -4.526  0.00  0.00    +0.013 A 
ATOM     27  C   UNL     1       0.754  -9.088  -5.805  0.00  0.00    +0.024 A 
ATOM     28  C   UNL     1       1.582 -10.198  -6.029  0.00  0.00    +0.030 A 
ATOM     29  C   UNL     1       1.915 -10.972  -4.909  0.00  0.00    +0.024 A 
ATOM     30  C   UNL     1       1.451 -10.660  -3.630  0.00  0.00    +0.013 A 
BRANCH  28  31
ATOM     31  N   UNL     1       2.067 -10.503  -7.282  0.00  0.00    -0.327 N 
ATOM     32  C   UNL     1       2.269  -9.478  -8.314  0.00  0.00    +0.120 C 
ATOM     33  C   UNL     1       3.667  -9.653  -8.954  0.00  0.00    +0.103 C 
ATOM     34  N   UNL     1       3.959 -11.009  -9.480  0.00  0.00    -0.297 NA
ATOM     35  C   UNL     1       3.731 -11.977  -8.374  0.00  0.00    +0.103 C 
ATOM     36  C   UNL     1       2.338 -11.886  -7.708  0.00  0.00    +0.120 C 
BRANCH  34  37
ATOM     37  C   UNL     1       3.133 -11.360 -10.651  0.00  0.00    +0.112 C 
BRANCH  37  38
ATOM     38  C   UNL     1       3.382 -10.468 -11.875  0.00  0.00    +0.174 C 
BRANCH  38  39
ATOM     39  O   UNL     1       2.554 -10.908 -12.954  0.00  0.00    -0.382 OA
ATOM     40  C   UNL     1       2.704 -10.060 -14.086  0.00  0.00    +0.194 C 
ENDBRANCH  38  39
ENDBRANCH  37  38
ENDBRANCH  34  37
ENDBRANCH  28  31
ENDBRANCH   9  25
TORSDOF 8
