REMARK  Name = L70
REMARK  8 active torsions:
REMARK  status: ('A' for Active; 'I' for Inactive)
REMARK    1  A    between atoms: C_1  and  C_2
REMARK    2  A    between atoms: C_10  and  S_17
REMARK    3  A    between atoms: S_17  and  C_18
REMARK    4  A    between atoms: C_21  and  N_24
REMARK    5  A    between atoms: C_25  and  C_27
REMARK    6  A    between atoms: C_27  and  N_28
REMARK    7  A    between atoms: C_31  and  C_33
REMARK    8  A    between atoms: C_38  and  O_41
REMARK                            x       y       z     vdW  Elec       q    Type
REMARK                         _______ _______ _______ _____ _____    ______ ____
ROOT
ATOM      1  C   UNL     1       0.324   4.742   3.702  0.00  0.00    +0.016 A 
ATOM      2  C   UNL     1      -0.062   3.415   3.477  0.00  0.00    +0.017 A 
ATOM      3  C   UNL     1      -0.320   2.561   4.554  0.00  0.00    +0.024 A 
ATOM      4  C   UNL     1      -0.186   3.025   5.861  0.00  0.00    +0.033 A 
ATOM      5  C   UNL     1       0.188   4.347   6.099  0.00  0.00    +0.024 A 
ATOM      6  C   UNL     1       0.456   5.200   5.018  0.00  0.00    +0.017 A 
ENDROOT
BRANCH   4   7
ATOM      7  N   UNL     1      -0.477   2.153   6.920  0.00  0.00    -0.284 N 
ATOM      8  C   UNL     1       0.522   1.395   7.525  0.00  0.00    +0.231 C 
ATOM      9  O   UNL     1       1.679   1.337   7.112  0.00  0.00    -0.274 OA
ATOM     10  H   UNL     1      -1.351   2.297   7.406  0.00  0.00    +0.155 HD
BRANCH   8  11
ATOM     11  C   UNL     1       0.036   0.600   8.752  0.00  0.00    +0.180 C 
BRANCH  11  12
ATOM     12  N   UNL     1       0.848   0.876   9.949  0.00  0.00    -0.293 NA
ATOM     13  C   UNL     1       0.452   0.061  11.098  0.00  0.00    +0.085 C 
ATOM     14  C   UNL     1      -0.415   0.975  11.938  0.00  0.00    +0.029 C 
ATOM     15  C   UNL     1       0.294   2.319  11.829  0.00  0.00    +0.090 C 
ATOM     16  C   UNL     1       0.828   2.286  10.387  0.00  0.00    +0.097 C 
BRANCH  15  17
ATOM     17  C   UNL     1       1.399   2.526  12.879  0.00  0.00    +0.220 C 
ATOM     18  O   UNL     1       2.580   2.595  12.557  0.00  0.00    -0.275 OA
ATOM     19  N   UNL     1       1.017   2.665  14.214  0.00  0.00    -0.301 N 
ATOM     20  C   UNL     1      -0.347   2.617  14.736  0.00  0.00    +0.110 C 
ATOM     21  C   UNL     1      -0.481   1.456  15.720  0.00  0.00    +0.050 C 
ATOM     22  C   UNL     1       0.572   1.533  16.827  0.00  0.00    +0.118 C 
ATOM     23  C   UNL     1       1.984   1.714  16.265  0.00  0.00    +0.050 C 
ATOM     24  C   UNL     1       2.052   2.840  15.234  0.00  0.00    +0.110 C 
BRANCH  22  25
ATOM     25  O   UNL     1       0.249   2.579  17.741  0.00  0.00    -0.392 OA
ATOM     26  H   UNL     1       0.317   3.436  17.290  0.00  0.00    +0.210 HD
ENDBRANCH  22  25
ENDBRANCH  15  17
ENDBRANCH  11  12
ENDBRANCH   8  11
ENDBRANCH   4   7
BRANCH   1  27
ATOM     27  S   UNL     1       0.709   5.816   2.328  0.00  0.00    -0.048 S 
BRANCH  27  37
ATOM     28  C   UNL     1       1.856   8.043  -3.528  0.00  0.00    +0.065 C 
ATOM     29  C   UNL     1       0.588   8.443  -2.888  0.00  0.00    +0.035 A 
ATOM     30  C   UNL     1       0.155   8.344  -1.589  0.00  0.00    +0.068 A 
ATOM     31  C   UNL     1      -1.155   8.866  -1.575  0.00  0.00    +0.146 A 
ATOM     32  N   UNL     1      -1.504   9.308  -2.789  0.00  0.00    -0.158 NA
ATOM     33  N   UNL     1      -0.447   9.021  -3.565  0.00  0.00    -0.280 N 
ATOM     34  N   UNL     1      -1.997   8.934  -0.523  0.00  0.00    -0.281 N 
ATOM     35  C   UNL     1      -1.925   8.062   0.544  0.00  0.00    +0.153 A 
ATOM     36  N   UNL     1      -0.830   7.470   0.930  0.00  0.00    -0.203 NA
ATOM     37  C   UNL     1      -0.840   6.586   1.970  0.00  0.00    +0.214 A 
ATOM     38  N   UNL     1      -1.871   6.278   2.690  0.00  0.00    -0.139 NA
ATOM     39  N   UNL     1      -2.995   6.891   2.336  0.00  0.00    -0.234 N 
ATOM     40  C   UNL     1      -3.109   7.768   1.304  0.00  0.00    +0.105 A 
ATOM     41  C   UNL     1      -4.428   8.170   1.216  0.00  0.00    +0.033 A 
ATOM     42  C   UNL     1      -5.131   7.495   2.245  0.00  0.00    +0.022 A 
ATOM     43  C   UNL     1      -4.217   6.717   2.924  0.00  0.00    +0.113 A 
ATOM     44  H   UNL     1      -0.503   9.245  -4.552  0.00  0.00    +0.189 HD
ATOM     45  H   UNL     1      -2.903   9.327  -0.754  0.00  0.00    +0.155 HD
ENDBRANCH  27  37
ENDBRANCH   1  27
TORSDOF 7
