REMARK  Name = L58
REMARK  8 active torsions:
REMARK  status: ('A' for Active; 'I' for Inactive)
REMARK    1  A    between atoms: C_1  and  C_2
REMARK    2  A    between atoms: C_10  and  S_17
REMARK    3  A    between atoms: S_17  and  C_18
REMARK    4  A    between atoms: C_21  and  N_24
REMARK    5  A    between atoms: C_25  and  C_27
REMARK    6  A    between atoms: C_27  and  N_28
REMARK    7  A    between atoms: C_33  and  C_34
REMARK    8  A    between atoms: C_34  and  O_35
REMARK                            x       y       z     vdW  Elec       q    Type
REMARK                         _______ _______ _______ _____ _____    ______ ____
ROOT
ATOM      1  C   UNL     1       0.188   4.856   3.775  0.00  0.00    +0.016 A 
ATOM      2  C   UNL     1      -1.080   4.928   4.363  0.00  0.00    +0.017 A 
ATOM      3  C   UNL     1      -1.400   4.151   5.486  0.00  0.00    +0.024 A 
ATOM      4  C   UNL     1      -0.489   3.224   5.990  0.00  0.00    +0.033 A 
ATOM      5  C   UNL     1       0.775   3.131   5.390  0.00  0.00    +0.024 A 
ATOM      6  C   UNL     1       1.115   3.954   4.303  0.00  0.00    +0.017 A 
ENDROOT
BRANCH   4   7
ATOM      7  N   UNL     1      -0.875   2.429   7.097  0.00  0.00    -0.284 N 
ATOM      8  C   UNL     1      -0.624   1.071   7.172  0.00  0.00    +0.231 C 
ATOM      9  O   UNL     1      -0.124   0.408   6.262  0.00  0.00    -0.274 OA
ATOM     10  H   UNL     1      -1.647   2.744   7.668  0.00  0.00    +0.155 HD
BRANCH   8  11
ATOM     11  C   UNL     1      -0.969   0.406   8.513  0.00  0.00    +0.181 C 
BRANCH  11  12
ATOM     12  N   UNL     1      -2.398   0.508   8.978  0.00  0.00    -0.288 NA
ATOM     13  C   UNL     1      -3.341  -0.053   7.975  0.00  0.00    +0.089 C 
ATOM     14  C   UNL     1      -3.168  -1.536   8.105  0.00  0.00    +0.008 C 
ATOM     15  C   UNL     1      -3.965  -2.417   9.028  0.00  0.00    +0.010 C 
ATOM     16  C   UNL     1      -2.679  -1.793   9.499  0.00  0.00    +0.013 C 
ATOM     17  C   UNL     1      -2.542  -0.427  10.161  0.00  0.00    +0.086 C 
BRANCH  17  18
ATOM     18  C   UNL     1      -3.748  -0.114  11.084  0.00  0.00    +0.175 C 
BRANCH  18  19
ATOM     19  O   UNL     1      -3.814  -1.048  12.166  0.00  0.00    -0.393 OA
ATOM     20  H   UNL     1      -3.940  -1.933  11.774  0.00  0.00    +0.209 HD
ENDBRANCH  18  19
ENDBRANCH  17  18
ENDBRANCH  11  12
ENDBRANCH   8  11
ENDBRANCH   4   7
BRANCH   1  21
ATOM     21  S   UNL     1       0.554   5.791   2.299  0.00  0.00    -0.048 S 
BRANCH  21  31
ATOM     22  C   UNL     1      -3.224   7.213   7.234  0.00  0.00    +0.065 C 
ATOM     23  C   UNL     1      -2.190   8.209   6.883  0.00  0.00    +0.035 A 
ATOM     24  C   UNL     1      -1.464   8.393   5.731  0.00  0.00    +0.068 A 
ATOM     25  C   UNL     1      -0.550   9.431   6.011  0.00  0.00    +0.146 A 
ATOM     26  N   UNL     1      -0.773   9.944   7.228  0.00  0.00    -0.158 NA
ATOM     27  N   UNL     1      -1.749   9.176   7.738  0.00  0.00    -0.280 N 
ATOM     28  N   UNL     1       0.434   9.894   5.210  0.00  0.00    -0.281 N 
ATOM     29  C   UNL     1       1.119   9.085   4.319  0.00  0.00    +0.153 A 
ATOM     30  N   UNL     1       0.614   8.006   3.801  0.00  0.00    -0.203 NA
ATOM     31  C   UNL     1       1.346   7.229   2.944  0.00  0.00    +0.214 A 
ATOM     32  N   UNL     1       2.550   7.471   2.529  0.00  0.00    -0.139 NA
ATOM     33  N   UNL     1       3.087   8.586   3.051  0.00  0.00    -0.234 N 
ATOM     34  C   UNL     1       2.460   9.409   3.932  0.00  0.00    +0.105 A 
ATOM     35  C   UNL     1       3.338  10.421   4.271  0.00  0.00    +0.033 A 
ATOM     36  C   UNL     1       4.540  10.189   3.557  0.00  0.00    +0.022 A 
ATOM     37  C   UNL     1       4.343   9.057   2.796  0.00  0.00    +0.113 A 
ATOM     38  H   UNL     1      -2.064   9.366   8.684  0.00  0.00    +0.189 HD
ATOM     39  H   UNL     1       0.964  10.655   5.613  0.00  0.00    +0.155 HD
ENDBRANCH  21  31
ENDBRANCH   1  21
TORSDOF 7
