REMARK  Name = L117
REMARK  9 active torsions:
REMARK  status: ('A' for Active; 'I' for Inactive)
REMARK    1  A    between atoms: C_1  and  C_2
REMARK    2  A    between atoms: C_2  and  C_3
REMARK    3  A    between atoms: C_2  and  C_4
REMARK    4  A    between atoms: C_6  and  C_9
REMARK    5  A    between atoms: C_9  and  N_10
REMARK    6  A    between atoms: N_13  and  C_16
REMARK    7  A    between atoms: C_24  and  C_26
REMARK    8  A    between atoms: C_29  and  C_32
REMARK    9  A    between atoms: C_32  and  N_33
REMARK                            x       y       z     vdW  Elec       q    Type
REMARK                         _______ _______ _______ _____ _____    ______ ____
ROOT
ATOM      1  C   UNL     1       1.185  -2.776  -2.439  0.00  0.00    +0.073 A 
ATOM      2  C   UNL     1       0.043  -2.088  -1.982  0.00  0.00    +0.108 A 
ATOM      3  C   UNL     1      -0.602  -2.410  -0.784  0.00  0.00    +0.180 A 
ATOM      4  N   UNL     1      -0.213  -3.375   0.058  0.00  0.00    -0.233 NA
ATOM      5  C   UNL     1       0.840  -4.083  -0.373  0.00  0.00    +0.130 A 
ATOM      6  C   UNL     1       1.512  -3.870  -1.573  0.00  0.00    +0.059 A 
ATOM      7 BR   UNL     1       2.806  -5.232  -1.962  0.00  0.00    -0.047 Br
ATOM      8  N   UNL     1      -1.667  -1.605  -0.550  0.00  0.00    -0.208 NA
ATOM      9  C   UNL     1      -1.702  -0.743  -1.542  0.00  0.00    +0.141 A 
ATOM     10  N   UNL     1      -0.679  -1.011  -2.428  0.00  0.00    -0.335 N 
ATOM     11  H   UNL     1      -0.496  -0.494  -3.281  0.00  0.00    +0.167 HD
ENDROOT
BRANCH   1  15
ATOM     12  N   UNL     1       3.961  -2.379  -5.749  0.00  0.00    -0.294 NA
ATOM     13  C   UNL     1       3.958  -3.213  -4.536  0.00  0.00    +0.103 C 
ATOM     14  C   UNL     1       3.379  -2.412  -3.357  0.00  0.00    +0.120 C 
ATOM     15  N   UNL     1       1.930  -2.432  -3.551  0.00  0.00    -0.325 N 
ATOM     16  C   UNL     1       1.536  -1.688  -4.768  0.00  0.00    +0.120 C 
ATOM     17  C   UNL     1       2.554  -1.916  -5.979  0.00  0.00    +0.103 C 
BRANCH  12  18
ATOM     18  C   UNL     1       5.014  -1.358  -5.567  0.00  0.00    +0.143 C 
BRANCH  18  21
ATOM     19  C   UNL     1       4.631   1.098  -8.018  0.00  0.00    +0.198 A 
ATOM     20  N   UNL     1       4.434   0.678  -6.789  0.00  0.00    -0.217 NA
ATOM     21  C   UNL     1       5.162  -0.479  -6.734  0.00  0.00    +0.093 A 
ATOM     22  C   UNL     1       5.933  -0.603  -7.864  0.00  0.00    +0.221 A 
ATOM     23  O   UNL     1       5.587   0.408  -8.713  0.00  0.00    -0.447 OA
BRANCH  19  25
ATOM     24  C   UNL     1       2.296   1.383  -8.622  0.00  0.00    +0.017 C 
ATOM     25  C   UNL     1       3.706   1.969  -8.787  0.00  0.00    +0.069 C 
ATOM     26  C   UNL     1       3.744   3.409  -8.294  0.00  0.00    +0.017 C 
ENDBRANCH  19  25
ENDBRANCH  18  21
ENDBRANCH  12  18
ENDBRANCH   1  15
BRANCH   9  27
ATOM     27  C   UNL     1      -2.693   0.330  -1.667  0.00  0.00    +0.017 A 
ATOM     28  C   UNL     1      -2.490   1.477  -2.440  0.00  0.00    +0.012 A 
ATOM     29  C   UNL     1      -3.456   2.496  -2.476  0.00  0.00    +0.005 A 
ATOM     30  C   UNL     1      -4.649   2.388  -1.746  0.00  0.00    -0.033 A 
ATOM     31  C   UNL     1      -4.845   1.244  -0.964  0.00  0.00    +0.005 A 
ATOM     32  C   UNL     1      -3.883   0.231  -0.928  0.00  0.00    +0.012 A 
BRANCH  30  33
ATOM     33  C   UNL     1      -5.665   3.510  -1.713  0.00  0.00    +0.119 C 
BRANCH  33  34
ATOM     34  N   UNL     1      -6.779   3.494  -2.659  0.00  0.00    -0.294 NA
ATOM     35  C   UNL     1      -7.640   2.307  -2.666  0.00  0.00    +0.113 C 
ATOM     36  C   UNL     1      -7.218   1.215  -3.664  0.00  0.00    +0.175 C 
ATOM     37  O   UNL     1      -7.035   1.741  -4.985  0.00  0.00    -0.377 OA
ATOM     38  C   UNL     1      -6.087   2.814  -4.990  0.00  0.00    +0.175 C 
ATOM     39  C   UNL     1      -6.491   3.936  -4.024  0.00  0.00    +0.113 C 
ENDBRANCH  33  34
ENDBRANCH  30  33
ENDBRANCH   9  27
TORSDOF 7
