REMARK  Name = L131
REMARK  7 active torsions:
REMARK  status: ('A' for Active; 'I' for Inactive)
REMARK    1  A    between atoms: C_1  and  C_2
REMARK    2  A    between atoms: C_4  and  C_7
REMARK    3  A    between atoms: C_7  and  N_8
REMARK    4  A    between atoms: N_11  and  C_14
REMARK    5  A    between atoms: C_22  and  C_24
REMARK    6  A    between atoms: C_27  and  N_30
REMARK    7  A    between atoms: N_33  and  C_36
REMARK                            x       y       z     vdW  Elec       q    Type
REMARK                         _______ _______ _______ _____ _____    ______ ____
ROOT
ATOM      1  C   UNL     1      -1.048  -6.998   0.483  0.00  0.00    +0.073 A 
ATOM      2  C   UNL     1      -0.564  -7.995  -0.389  0.00  0.00    +0.108 A 
ATOM      3  C   UNL     1      -0.483  -9.345  -0.073  0.00  0.00    +0.180 A 
ATOM      4  N   UNL     1      -0.820  -9.849   1.128  0.00  0.00    -0.233 NA
ATOM      5  C   UNL     1      -1.282  -8.922   1.988  0.00  0.00    +0.130 A 
ATOM      6  C   UNL     1      -1.434  -7.553   1.730  0.00  0.00    +0.059 A 
ATOM      7 BR   UNL     1      -2.297  -6.583   3.129  0.00  0.00    -0.047 Br
ATOM      8  N   UNL     1      -0.018 -10.088  -1.119  0.00  0.00    -0.208 NA
ATOM      9  C   UNL     1       0.196  -9.230  -2.095  0.00  0.00    +0.141 A 
ATOM     10  N   UNL     1      -0.025  -7.950  -1.647  0.00  0.00    -0.335 N 
ATOM     11  H   UNL     1       0.173  -7.114  -2.171  0.00  0.00    +0.167 HD
ENDROOT
BRANCH   1  15
ATOM     12  N   UNL     1      -0.544  -2.999  -0.817  0.00  0.00    -0.294 NA
ATOM     13  C   UNL     1      -0.013  -3.446   0.488  0.00  0.00    +0.103 C 
ATOM     14  C   UNL     1      -0.881  -4.575   1.079  0.00  0.00    +0.120 C 
ATOM     15  N   UNL     1      -1.043  -5.673   0.110  0.00  0.00    -0.325 N 
ATOM     16  C   UNL     1      -1.485  -5.216  -1.226  0.00  0.00    +0.120 C 
ATOM     17  C   UNL     1      -0.510  -4.129  -1.754  0.00  0.00    +0.103 C 
BRANCH  12  18
ATOM     18  C   UNL     1       0.104  -1.781  -1.300  0.00  0.00    +0.143 C 
BRANCH  18  22
ATOM     19  C   UNL     1      -2.705   1.624   1.278  0.00  0.00    +0.089 C 
ATOM     20  C   UNL     1      -1.696   0.776   0.621  0.00  0.00    +0.135 A 
ATOM     21  C   UNL     1      -1.764  -0.333  -0.179  0.00  0.00    +0.072 A 
ATOM     22  C   UNL     1      -0.412  -0.632  -0.484  0.00  0.00    +0.098 A 
ATOM     23  N   UNL     1       0.421   0.233   0.110  0.00  0.00    -0.082 NA
ATOM     24  O   UNL     1      -0.392   1.117   0.804  0.00  0.00    -0.360 OA
ENDBRANCH  18  22
ENDBRANCH  12  18
ENDBRANCH   1  15
BRANCH   9  25
ATOM     25  C   UNL     1       0.651  -9.529  -3.444  0.00  0.00    +0.017 A 
ATOM     26  C   UNL     1       0.302  -8.740  -4.543  0.00  0.00    +0.013 A 
ATOM     27  C   UNL     1       0.771  -9.058  -5.827  0.00  0.00    +0.024 A 
ATOM     28  C   UNL     1       1.602 -10.162  -6.055  0.00  0.00    +0.030 A 
ATOM     29  C   UNL     1       1.932 -10.943  -4.936  0.00  0.00    +0.024 A 
ATOM     30  C   UNL     1       1.463 -10.640  -3.655  0.00  0.00    +0.013 A 
BRANCH  28  31
ATOM     31  N   UNL     1       2.101 -10.459  -7.303  0.00  0.00    -0.327 N 
ATOM     32  C   UNL     1       2.304  -9.439  -8.339  0.00  0.00    +0.120 C 
ATOM     33  C   UNL     1       3.677  -9.655  -9.026  0.00  0.00    +0.103 C 
ATOM     34  N   UNL     1       3.939 -11.025  -9.528  0.00  0.00    -0.302 NA
ATOM     35  C   UNL     1       3.671 -11.993  -8.438  0.00  0.00    +0.103 C 
ATOM     36  C   UNL     1       2.292 -11.847  -7.754  0.00  0.00    +0.120 C 
ATOM     37  C   UNL     1       3.138 -11.320 -10.712  0.00  0.00    +0.105 C 
ENDBRANCH  28  31
ENDBRANCH   9  25
TORSDOF 5
