REMARK  Name = L3
REMARK  3 active torsions:
REMARK  status: ('A' for Active; 'I' for Inactive)
REMARK    1  A    between atoms: C_8  and  N_16
REMARK    2  A    between atoms: N_16  and  C_17
REMARK    3  A    between atoms: C_20  and  N_23
REMARK                            x       y       z     vdW  Elec       q    Type
REMARK                         _______ _______ _______ _____ _____    ______ ____
ROOT
ATOM      1  C   UNL     1       3.078  -1.407  -0.073  0.00  0.00    +0.001 A 
ATOM      2  C   UNL     1       3.678  -0.158   0.001  0.00  0.00    +0.001 A 
ATOM      3  C   UNL     1       2.878   0.974   0.029  0.00  0.00    +0.014 A 
ATOM      4  C   UNL     1       1.479   0.850   0.000  0.00  0.00    +0.047 A 
ATOM      5  C   UNL     1       0.830  -0.405  -0.056  0.00  0.00    -0.000 A 
ATOM      6  C   UNL     1       1.680  -1.526  -0.113  0.00  0.00    +0.009 A 
ATOM      7  C   UNL     1      -0.666  -0.455  -0.049  0.00  0.00    +0.046 A 
ATOM      8  C   UNL     1      -1.498  -1.603  -0.067  0.00  0.00    +0.044 A 
ATOM      9  C   UNL     1      -2.896  -1.441   0.021  0.00  0.00    +0.043 A 
ATOM     10  C   UNL     1      -3.443  -0.178   0.038  0.00  0.00    +0.115 A 
ATOM     11  N   UNL     1      -2.701   0.934   0.011  0.00  0.00    -0.237 NA
ATOM     12  C   UNL     1      -1.360   0.771  -0.018  0.00  0.00    +0.143 A 
ATOM     13  N   UNL     1      -0.668   1.973   0.005  0.00  0.00    -0.306 N 
ATOM     14  C   UNL     1       0.685   2.103   0.022  0.00  0.00    +0.258 A 
ATOM     15  O   UNL     1       1.222   3.206   0.056  0.00  0.00    -0.267 OA
ATOM     16  H   UNL     1      -1.227   2.813   0.025  0.00  0.00    +0.170 HD
ENDROOT
BRANCH   8  17
ATOM     17  N   UNL     1      -0.976  -2.932  -0.051  0.00  0.00    -0.314 N 
ATOM     18  H   UNL     1      -0.577  -3.111   0.870  0.00  0.00    +0.152 HD
BRANCH  17  19
ATOM     19  C   UNL     1      -1.611  -4.096  -0.554  0.00  0.00    +0.031 A 
ATOM     20  C   UNL     1      -2.429  -4.062  -1.690  0.00  0.00    +0.025 A 
ATOM     21  C   UNL     1      -3.097  -5.210  -2.131  0.00  0.00    +0.024 A 
ATOM     22  C   UNL     1      -2.953  -6.418  -1.452  0.00  0.00    +0.025 A 
ATOM     23  C   UNL     1      -2.011  -6.492  -0.426  0.00  0.00    +0.024 A 
ATOM     24  C   UNL     1      -1.353  -5.341   0.027  0.00  0.00    +0.025 A 
BRANCH  22  25
ATOM     25  N   UNL     1      -3.563  -7.579  -1.941  0.00  0.00    -0.358 N 
ATOM     26  H   UNL     1      -4.435  -7.400  -2.431  0.00  0.00    +0.142 HD
ATOM     27  H   UNL     1      -3.665  -8.309  -1.243  0.00  0.00    +0.142 HD
ENDBRANCH  22  25
ENDBRANCH  17  19
ENDBRANCH   8  17
TORSDOF 3
