REMARK  Name = L137
REMARK  6 active torsions:
REMARK  status: ('A' for Active; 'I' for Inactive)
REMARK    1  A    between atoms: C_1  and  C_2
REMARK    2  A    between atoms: N_4  and  C_31
REMARK    3  A    between atoms: C_6  and  C_7
REMARK    4  A    between atoms: C_13  and  N_16
REMARK    5  A    between atoms: N_19  and  C_22
REMARK    6  A    between atoms: C_22  and  C_23
REMARK                            x       y       z     vdW  Elec       q    Type
REMARK                         _______ _______ _______ _____ _____    ______ ____
ROOT
ATOM      1  C   UNL     1      -0.969  -6.483  -1.666  0.00  0.00    +0.144 A 
ATOM      2  N   UNL     1      -1.974  -5.842  -2.219  0.00  0.00    -0.208 NA
ATOM      3  C   UNL     1      -2.793  -5.493  -1.182  0.00  0.00    +0.180 A 
ATOM      4  N   UNL     1      -3.957  -4.829  -1.321  0.00  0.00    -0.233 NA
ATOM      5  C   UNL     1      -4.598  -4.613  -0.155  0.00  0.00    +0.135 A 
ATOM      6  C   UNL     1      -4.155  -4.992   1.116  0.00  0.00    +0.082 A 
ATOM      7  C   UNL     1      -2.920  -5.669   1.281  0.00  0.00    +0.077 A 
ATOM      8  C   UNL     1      -2.285  -5.905   0.044  0.00  0.00    +0.108 A 
ATOM      9  N   UNL     1      -1.102  -6.511  -0.304  0.00  0.00    -0.335 N 
ATOM     10 CL   UNL     1      -5.261  -4.699   2.418  0.00  0.00    -0.080 Cl
ATOM     11  H   UNL     1      -0.436  -6.914   0.334  0.00  0.00    +0.167 HD
ENDROOT
BRANCH   1  17
ATOM     12  C   UNL     1      -0.302  -6.227  -4.837  0.00  0.00    +0.068 C 
ATOM     13  C   UNL     1       0.435  -6.994  -3.803  0.00  0.00    +0.071 A 
ATOM     14  N   UNL     1       1.530  -7.701  -4.128  0.00  0.00    -0.176 NA
ATOM     15  N   UNL     1       1.929  -8.239  -2.966  0.00  0.00    -0.274 N 
ATOM     16  C   UNL     1       1.148  -7.892  -1.900  0.00  0.00    +0.119 A 
ATOM     17  C   UNL     1       0.154  -7.093  -2.417  0.00  0.00    +0.058 A 
ATOM     18  C   UNL     1       3.083  -9.105  -2.935  0.00  0.00    +0.172 C 
ENDBRANCH   1  17
BRANCH   7  19
ATOM     19  N   UNL     1      -2.371  -6.085   2.476  0.00  0.00    -0.325 N 
ATOM     20  C   UNL     1      -2.394  -5.274   3.706  0.00  0.00    +0.120 C 
ATOM     21  C   UNL     1      -2.951  -6.101   4.897  0.00  0.00    +0.103 C 
ATOM     22  N   UNL     1      -2.284  -7.417   5.109  0.00  0.00    -0.295 NA
ATOM     23  C   UNL     1      -2.355  -8.160   3.830  0.00  0.00    +0.103 C 
ATOM     24  C   UNL     1      -1.767  -7.419   2.611  0.00  0.00    +0.120 C 
BRANCH  22  25
ATOM     25  C   UNL     1      -0.908  -7.212   5.590  0.00  0.00    +0.119 C 
BRANCH  25  26
ATOM     26  C   UNL     1      -0.115  -8.481   5.822  0.00  0.00    -0.033 A 
ATOM     27  C   UNL     1       1.086  -8.698   5.126  0.00  0.00    +0.006 A 
ATOM     28  C   UNL     1       1.854  -9.837   5.376  0.00  0.00    +0.020 A 
ATOM     29  C   UNL     1       1.425 -10.764   6.322  0.00  0.00    +0.041 A 
ATOM     30  C   UNL     1       0.229 -10.570   7.011  0.00  0.00    +0.020 A 
ATOM     31  C   UNL     1      -0.540  -9.432   6.760  0.00  0.00    +0.006 A 
ATOM     32 CL   UNL     1       2.389 -12.150   6.653  0.00  0.00    -0.084 Cl
ENDBRANCH  25  26
ENDBRANCH  22  25
ENDBRANCH   7  19
TORSDOF 4
