REMARK  Name = L134
REMARK  8 active torsions:
REMARK  status: ('A' for Active; 'I' for Inactive)
REMARK    1  A    between atoms: C_1  and  N_2
REMARK    2  A    between atoms: N_2  and  C_3
REMARK    3  A    between atoms: N_2  and  C_4
REMARK    4  A    between atoms: C_7  and  C_10
REMARK    5  A    between atoms: C_16  and  N_19
REMARK    6  A    between atoms: N_22  and  C_25
REMARK    7  A    between atoms: C_25  and  C_26
REMARK    8  A    between atoms: N_28  and  C_29
REMARK                            x       y       z     vdW  Elec       q    Type
REMARK                         _______ _______ _______ _____ _____    ______ ____
ROOT
ATOM      1  C   UNL     1       9.969  -5.146   2.375  0.00  0.00    +0.141 A 
ATOM      2  N   UNL     1       9.600  -5.941   1.390  0.00  0.00    -0.208 NA
ATOM      3  C   UNL     1       8.511  -6.623   1.854  0.00  0.00    +0.180 A 
ATOM      4  N   UNL     1       7.804  -7.509   1.128  0.00  0.00    -0.233 NA
ATOM      5  C   UNL     1       6.788  -8.072   1.810  0.00  0.00    +0.130 A 
ATOM      6  C   UNL     1       6.447  -7.827   3.147  0.00  0.00    +0.059 A 
ATOM      7  C   UNL     1       7.176  -6.892   3.925  0.00  0.00    +0.073 A 
ATOM      8  C   UNL     1       8.218  -6.305   3.174  0.00  0.00    +0.108 A 
ATOM      9  N   UNL     1       9.141  -5.328   3.457  0.00  0.00    -0.335 N 
ATOM     10 BR   UNL     1       5.058  -8.949   3.815  0.00  0.00    -0.047 Br
ATOM     11  H   UNL     1       9.216  -4.837   4.333  0.00  0.00    +0.167 HD
ENDROOT
BRANCH   1  15
ATOM     12  C   UNL     1      13.275  -2.347   2.263  0.00  0.00    +0.029 A 
ATOM     13  C   UNL     1      12.206  -2.194   3.161  0.00  0.00    +0.024 A 
ATOM     14  C   UNL     1      11.130  -3.093   3.207  0.00  0.00    +0.013 A 
ATOM     15  C   UNL     1      11.088  -4.201   2.361  0.00  0.00    +0.017 A 
ATOM     16  C   UNL     1      12.149  -4.387   1.474  0.00  0.00    +0.013 A 
ATOM     17  C   UNL     1      13.221  -3.480   1.433  0.00  0.00    +0.024 A 
BRANCH  12  19
ATOM     18  C   UNL     1      14.340  -0.264   3.073  0.00  0.00    +0.129 C 
ATOM     19  N   UNL     1      14.334  -1.441   2.211  0.00  0.00    -0.336 N 
ATOM     20  C   UNL     1      15.185  -1.399   1.026  0.00  0.00    +0.129 C 
ENDBRANCH  12  19
ENDBRANCH   1  15
BRANCH   7  21
ATOM     21  N   UNL     1       6.962  -6.559   5.247  0.00  0.00    -0.325 N 
ATOM     22  C   UNL     1       5.635  -6.441   5.871  0.00  0.00    +0.120 C 
ATOM     23  C   UNL     1       5.534  -7.386   7.103  0.00  0.00    +0.104 C 
ATOM     24  N   UNL     1       6.609  -7.216   8.124  0.00  0.00    -0.291 NA
ATOM     25  C   UNL     1       7.914  -7.301   7.415  0.00  0.00    +0.104 C 
ATOM     26  C   UNL     1       8.084  -6.380   6.186  0.00  0.00    +0.120 C 
BRANCH  24  27
ATOM     27  C   UNL     1       6.419  -5.923   8.820  0.00  0.00    +0.180 C 
BRANCH  27  28
ATOM     28  C   UNL     1       7.538  -5.620   9.810  0.00  0.00    +0.231 C 
ATOM     29  O   UNL     1       8.171  -4.567   9.705  0.00  0.00    -0.274 OA
ATOM     30  N   UNL     1       7.734  -6.611  10.753  0.00  0.00    -0.284 N 
ATOM     31  H   UNL     1       7.286  -7.497  10.548  0.00  0.00    +0.155 HD
BRANCH  30  32
ATOM     32  C   UNL     1       8.643  -6.561  11.831  0.00  0.00    +0.033 A 
ATOM     33  C   UNL     1       9.266  -5.379  12.242  0.00  0.00    +0.023 A 
ATOM     34  C   UNL     1      10.185  -5.385  13.295  0.00  0.00    +0.002 A 
ATOM     35  C   UNL     1      10.482  -6.573  13.954  0.00  0.00    +0.000 A 
ATOM     36  C   UNL     1       9.845  -7.752  13.572  0.00  0.00    +0.002 A 
ATOM     37  C   UNL     1       8.921  -7.745  12.520  0.00  0.00    +0.023 A 
ENDBRANCH  30  32
ENDBRANCH  27  28
ENDBRANCH  24  27
ENDBRANCH   7  21
TORSDOF 6
