REMARK  Name = L158
REMARK  5 active torsions:
REMARK  status: ('A' for Active; 'I' for Inactive)
REMARK    1  A    between atoms: C_1  and  N_2
REMARK    2  A    between atoms: C_4  and  C_7
REMARK    3  A    between atoms: C_13  and  N_16
REMARK    4  A    between atoms: N_19  and  C_22
REMARK    5  A    between atoms: C_22  and  C_23
REMARK                            x       y       z     vdW  Elec       q    Type
REMARK                         _______ _______ _______ _____ _____    ______ ____
ROOT
ATOM      1  C   UNL     1       6.708  -0.896  -1.968  0.00  0.00    +0.144 A 
ATOM      2  N   UNL     1       6.048  -1.912  -2.476  0.00  0.00    -0.208 NA
ATOM      3  C   UNL     1       5.718  -2.696  -1.405  0.00  0.00    +0.180 A 
ATOM      4  N   UNL     1       5.046  -3.858  -1.498  0.00  0.00    -0.233 NA
ATOM      5  C   UNL     1       4.864  -4.470  -0.313  0.00  0.00    +0.130 A 
ATOM      6  C   UNL     1       5.284  -4.000   0.938  0.00  0.00    +0.059 A 
ATOM      7  C   UNL     1       5.968  -2.764   1.060  0.00  0.00    +0.073 A 
ATOM      8  C   UNL     1       6.164  -2.158  -0.202  0.00  0.00    +0.108 A 
ATOM      9  N   UNL     1       6.761  -0.986  -0.603  0.00  0.00    -0.335 N 
ATOM     10 BR   UNL     1       5.001  -5.226   2.372  0.00  0.00    -0.047 Br
ATOM     11  H   UNL     1       7.179  -0.301   0.006  0.00  0.00    +0.167 HD
ENDROOT
BRANCH   1  15
ATOM     12  C   UNL     1       7.984   2.100  -5.734  0.00  0.00    +0.172 C 
ATOM     13  N   UNL     1       7.856   1.494  -4.431  0.00  0.00    -0.274 N 
ATOM     14  C   UNL     1       7.162   0.364  -4.119  0.00  0.00    +0.119 A 
ATOM     15  C   UNL     1       7.305   0.199  -2.763  0.00  0.00    +0.055 A 
ATOM     16  C   UNL     1       8.126   1.266  -2.352  0.00  0.00    +0.145 A 
ATOM     17  N   UNL     1       8.464   2.063  -3.370  0.00  0.00    -0.179 NA
ENDBRANCH   1  15
BRANCH   7  18
ATOM     18  N   UNL     1       6.437  -2.194   2.227  0.00  0.00    -0.325 N 
ATOM     19  C   UNL     1       5.705  -2.204   3.507  0.00  0.00    +0.120 C 
ATOM     20  C   UNL     1       6.626  -2.716   4.651  0.00  0.00    +0.103 C 
ATOM     21  N   UNL     1       7.929  -2.003   4.771  0.00  0.00    -0.295 NA
ATOM     22  C   UNL     1       8.587  -2.057   3.446  0.00  0.00    +0.103 C 
ATOM     23  C   UNL     1       7.738  -1.509   2.279  0.00  0.00    +0.120 C 
BRANCH  21  24
ATOM     24  C   UNL     1       7.716  -0.629   5.260  0.00  0.00    +0.121 C 
BRANCH  24  25
ATOM     25  C   UNL     1       8.968   0.196   5.408  0.00  0.00    -0.015 A 
ATOM     26  C   UNL     1       9.112   1.397   4.717  0.00  0.00    +0.115 A 
ATOM     27  N   UNL     1      10.179   2.217   4.825  0.00  0.00    -0.263 NA
ATOM     28  C   UNL     1      11.152   1.830   5.677  0.00  0.00    +0.111 A 
ATOM     29  C   UNL     1      11.113   0.654   6.407  0.00  0.00    +0.020 A 
ATOM     30  C   UNL     1      10.005  -0.177   6.266  0.00  0.00    +0.008 A 
ENDBRANCH  24  25
ENDBRANCH  21  24
ENDBRANCH   7  18
TORSDOF 4
