REMARK  Name = L127
REMARK  6 active torsions:
REMARK  status: ('A' for Active; 'I' for Inactive)
REMARK    1  A    between atoms: C_1  and  C_2
REMARK    2  A    between atoms: C_4  and  C_7
REMARK    3  A    between atoms: C_7  and  N_8
REMARK    4  A    between atoms: N_11  and  C_14
REMARK    5  A    between atoms: C_22  and  C_24
REMARK    6  A    between atoms: N_26  and  C_29
REMARK                            x       y       z     vdW  Elec       q    Type
REMARK                         _______ _______ _______ _____ _____    ______ ____
ROOT
ATOM      1  C   UNL     1      -1.064  -6.959   0.501  0.00  0.00    +0.077 A 
ATOM      2  C   UNL     1       0.119  -7.512   1.023  0.00  0.00    +0.108 A 
ATOM      3  C   UNL     1       0.270  -8.842   1.378  0.00  0.00    +0.180 A 
ATOM      4  N   UNL     1      -0.729  -9.747   1.305  0.00  0.00    -0.233 NA
ATOM      5  C   UNL     1      -1.891  -9.222   0.853  0.00  0.00    +0.135 A 
ATOM      6  C   UNL     1      -2.107  -7.916   0.440  0.00  0.00    +0.082 A 
ATOM      7 CL   UNL     1      -3.740  -7.569  -0.046  0.00  0.00    -0.080 Cl
ATOM      8  N   UNL     1       1.536  -9.125   1.805  0.00  0.00    -0.208 NA
ATOM      9  C   UNL     1       2.175  -7.975   1.784  0.00  0.00    +0.144 A 
ATOM     10  N   UNL     1       1.361  -6.978   1.310  0.00  0.00    -0.335 N 
ATOM     11  H   UNL     1       1.624  -6.017   1.235  0.00  0.00    +0.167 HD
ENDROOT
BRANCH   1  15
ATOM     12  N   UNL     1      -1.995  -2.961  -0.054  0.00  0.00    -0.294 NA
ATOM     13  C   UNL     1      -2.862  -4.013  -0.620  0.00  0.00    +0.103 C 
ATOM     14  C   UNL     1      -1.954  -5.188  -1.036  0.00  0.00    +0.120 C 
ATOM     15  N   UNL     1      -1.142  -5.639   0.114  0.00  0.00    -0.325 N 
ATOM     16  C   UNL     1      -0.453  -4.573   0.857  0.00  0.00    +0.120 C 
ATOM     17  C   UNL     1      -1.433  -3.439   1.208  0.00  0.00    +0.103 C 
BRANCH  12  18
ATOM     18  C   UNL     1      -2.573  -1.630  -0.016  0.00  0.00    +0.143 C 
BRANCH  18  22
ATOM     19  C   UNL     1      -2.012  -0.081  -4.848  0.00  0.00    +0.089 C 
ATOM     20  C   UNL     1      -2.451  -0.532  -3.516  0.00  0.00    +0.135 A 
ATOM     21  C   UNL     1      -1.788  -1.100  -2.457  0.00  0.00    +0.072 A 
ATOM     22  C   UNL     1      -2.755  -1.147  -1.427  0.00  0.00    +0.098 A 
ATOM     23  N   UNL     1      -3.950  -0.731  -1.863  0.00  0.00    -0.082 NA
ATOM     24  O   UNL     1      -3.750  -0.336  -3.180  0.00  0.00    -0.360 OA
ENDBRANCH  18  22
ENDBRANCH  12  18
ENDBRANCH   1  15
BRANCH   9  25
ATOM     25  C   UNL     1       3.573  -7.763   2.207  0.00  0.00    +0.055 A 
ATOM     26  C   UNL     1       4.445  -8.741   2.615  0.00  0.00    +0.119 A 
ATOM     27  N   UNL     1       5.615  -8.097   2.875  0.00  0.00    -0.274 N 
ATOM     28  N   UNL     1       5.549  -6.757   2.716  0.00  0.00    -0.179 NA
ATOM     29  C   UNL     1       4.290  -6.557   2.312  0.00  0.00    +0.145 A 
ATOM     30  C   UNL     1       6.863  -8.700   3.270  0.00  0.00    +0.172 C 
ENDBRANCH   9  25
TORSDOF 4
