REMARK  Name = L79
REMARK  8 active torsions:
REMARK  status: ('A' for Active; 'I' for Inactive)
REMARK    1  A    between atoms: C_1  and  O_2
REMARK    2  A    between atoms: O_2  and  C_3
REMARK    3  A    between atoms: C_4  and  C_10
REMARK    4  A    between atoms: N_26  and  C_27
REMARK    5  A    between atoms: C_29  and  O_36
REMARK    6  A    between atoms: C_30  and  C_33
REMARK    7  A    between atoms: C_33  and  O_35
REMARK    8  A    between atoms: O_36  and  C_37
REMARK                            x       y       z     vdW  Elec       q    Type
REMARK                         _______ _______ _______ _____ _____    ______ ____
ROOT
ATOM      1  C   UNL     1       1.880  -0.105   2.828  0.00  0.00    +0.080 C 
ATOM      2  N   UNL     1       0.814   0.369   3.383  0.00  0.00    -0.278 NA
ATOM      3  C   UNL     1      -0.178  -0.523   3.961  0.00  0.00    +0.181 C 
ATOM      4  C   UNL     1       0.338  -1.183   5.189  0.00  0.00    +0.018 A 
ATOM      5  C   UNL     1      -0.193  -0.943   6.430  0.00  0.00    +0.122 A 
ATOM      6  N   UNL     1       0.269  -1.514   7.550  0.00  0.00    -0.222 NA
ATOM      7  C   UNL     1       1.308  -2.357   7.441  0.00  0.00    +0.220 A 
ATOM      8  N   UNL     1       1.864  -2.689   6.267  0.00  0.00    -0.214 NA
ATOM      9  C   UNL     1       1.391  -2.074   5.150  0.00  0.00    +0.082 A 
ATOM     10  C   UNL     1       2.016  -2.474   3.871  0.00  0.00    +0.010 A 
ATOM     11  C   UNL     1       2.212  -1.594   2.773  0.00  0.00    +0.011 A 
ATOM     12  C   UNL     1       2.751  -2.096   1.570  0.00  0.00    +0.030 A 
ATOM     13  C   UNL     1       3.143  -3.430   1.465  0.00  0.00    +0.042 A 
ATOM     14  C   UNL     1       2.967  -4.301   2.530  0.00  0.00    +0.020 A 
ATOM     15  C   UNL     1       2.403  -3.827   3.714  0.00  0.00    +0.012 A 
ATOM     16 CL   UNL     1       3.863  -3.998   0.009  0.00  0.00    -0.084 Cl
ATOM     17  N   UNL     1       1.815  -2.953   8.595  0.00  0.00    -0.283 N 
ATOM     18  H   UNL     1       2.524  -3.639   8.382  0.00  0.00    +0.155 HD
ENDROOT
BRANCH   1  20
ATOM     19  C   UNL     1       2.403   2.063   1.521  0.00  0.00    +0.132 A 
ATOM     20  C   UNL     1       2.830   0.882   2.172  0.00  0.00    +0.077 A 
ATOM     21  C   UNL     1       4.205   0.596   2.167  0.00  0.00    +0.136 A 
ATOM     22  C   UNL     1       5.113   1.349   1.425  0.00  0.00    +0.039 A 
ATOM     23  C   UNL     1       4.670   2.444   0.701  0.00  0.00    +0.006 A 
ATOM     24  C   UNL     1       3.328   2.810   0.766  0.00  0.00    +0.046 A 
ATOM     25  F   UNL     1       4.698  -0.436   2.868  0.00  0.00    -0.205 F 
BRANCH  19  27
ATOM     26  C   UNL     1       0.850   3.849   1.585  0.00  0.00    +0.277 C 
ATOM     27  O   UNL     1       1.081   2.437   1.557  0.00  0.00    -0.494 OA
ENDBRANCH  19  27
ENDBRANCH   1  20
BRANCH  17  28
ATOM     28  C   UNL     1       1.731  -2.480   9.915  0.00  0.00    +0.037 A 
ATOM     29  C   UNL     1       1.691  -3.381  10.989  0.00  0.00    +0.069 A 
ATOM     30  C   UNL     1       1.454  -2.942  12.306  0.00  0.00    +0.136 A 
ATOM     31  C   UNL     1       1.287  -1.566  12.559  0.00  0.00    +0.100 A 
ATOM     32  C   UNL     1       1.374  -0.662  11.493  0.00  0.00    +0.020 A 
ATOM     33  C   UNL     1       1.582  -1.117  10.193  0.00  0.00    +0.024 A 
BRANCH  31  34
ATOM     34  C   UNL     1       0.989  -0.964  13.898  0.00  0.00    +0.340 C 
ATOM     35  O   UNL     1       0.866   0.241  14.060  0.00  0.00    -0.245 OA
BRANCH  34  36
ATOM     36  O   UNL     1       0.859  -1.832  14.921  0.00  0.00    -0.477 OA
ATOM     37  H   UNL     1       0.981  -2.762  14.640  0.00  0.00    +0.295 HD
ENDBRANCH  34  36
ENDBRANCH  31  34
BRANCH  30  38
ATOM     38  O   UNL     1       1.347  -3.786  13.386  0.00  0.00    -0.494 OA
ATOM     39  C   UNL     1       1.473  -5.187  13.157  0.00  0.00    +0.277 C 
ENDBRANCH  30  38
ENDBRANCH  17  28
TORSDOF 6
