REMARK  Name = L37
REMARK  7 active torsions:
REMARK  status: ('A' for Active; 'I' for Inactive)
REMARK    1  A    between atoms: C_1  and  C_2
REMARK    2  A    between atoms: C_2  and  C_3
REMARK    3  A    between atoms: N_5  and  C_6
REMARK    4  A    between atoms: C_9  and  S_12
REMARK    5  A    between atoms: S_12  and  C_13
REMARK    6  A    between atoms: C_15  and  N_25
REMARK    7  A    between atoms: C_29  and  C_31
REMARK                            x       y       z     vdW  Elec       q    Type
REMARK                         _______ _______ _______ _____ _____    ______ ____
ROOT
ATOM      1  C   UNL     1       5.487   3.630  -7.747  0.00  0.00    +0.196 A 
ATOM      2  N   UNL     1       4.702   3.523  -8.837  0.00  0.00    -0.206 NA
ATOM      3  C   UNL     1       3.926   4.582  -9.119  0.00  0.00    +0.130 A 
ATOM      4  C   UNL     1       4.001   5.738  -8.369  0.00  0.00    +0.087 A 
ATOM      5  C   UNL     1       4.835   5.779  -7.274  0.00  0.00    +0.128 A 
ATOM      6  N   UNL     1       5.571   4.711  -6.956  0.00  0.00    -0.207 NA
ATOM      7  N   UNL     1       4.874   6.896  -6.468  0.00  0.00    -0.313 N 
ATOM      8  C   UNL     1       5.306   6.779  -5.073  0.00  0.00    +0.121 C 
ATOM      9  C   UNL     1       6.622   7.542  -4.828  0.00  0.00    +0.100 C 
ATOM     10  N   UNL     1       6.574   8.948  -5.282  0.00  0.00    -0.313 NA
ATOM     11  C   UNL     1       6.207   8.979  -6.710  0.00  0.00    +0.100 C 
ATOM     12  C   UNL     1       4.879   8.252  -7.030  0.00  0.00    +0.121 C 
ATOM     13  H   UNL     1       7.495   9.366  -5.165  0.00  0.00    +0.122 HD
ENDROOT
BRANCH   3  14
ATOM     14  N   UNL     1       3.042   4.465 -10.209  0.00  0.00    -0.283 N 
ATOM     15  C   UNL     1       1.943   5.201 -10.503  0.00  0.00    +0.146 A 
ATOM     16  N   UNL     1       1.375   6.131  -9.730  0.00  0.00    -0.158 NA
ATOM     17  N   UNL     1       0.330   6.577 -10.428  0.00  0.00    -0.280 N 
ATOM     18  C   UNL     1       0.207   5.998 -11.656  0.00  0.00    +0.035 A 
ATOM     19  C   UNL     1       1.222   5.068 -11.718  0.00  0.00    +0.068 A 
ATOM     20  C   UNL     1      -0.845   6.400 -12.613  0.00  0.00    +0.065 C 
ATOM     21  H   UNL     1       3.205   3.585 -10.681  0.00  0.00    +0.155 HD
ATOM     22  H   UNL     1      -0.251   7.295 -10.008  0.00  0.00    +0.189 HD
ENDBRANCH   3  14
BRANCH   1  23
ATOM     23  S   UNL     1       6.490   2.207  -7.340  0.00  0.00    -0.050 S 
BRANCH  23  27
ATOM     24  C   UNL     1       8.647   3.614  -3.512  0.00  0.00    +0.033 A 
ATOM     25  C   UNL     1       7.397   2.994  -3.449  0.00  0.00    +0.024 A 
ATOM     26  C   UNL     1       6.745   2.559  -4.606  0.00  0.00    +0.017 A 
ATOM     27  C   UNL     1       7.331   2.745  -5.859  0.00  0.00    +0.016 A 
ATOM     28  C   UNL     1       8.589   3.352  -5.931  0.00  0.00    +0.017 A 
ATOM     29  C   UNL     1       9.237   3.796  -4.768  0.00  0.00    +0.024 A 
BRANCH  24  32
ATOM     30  C   UNL     1       9.010   3.784  -1.052  0.00  0.00    +0.217 C 
ATOM     31  O   UNL     1       8.160   2.974  -0.696  0.00  0.00    -0.275 OA
ATOM     32  N   UNL     1       9.333   4.086  -2.367  0.00  0.00    -0.286 N 
ATOM     33  H   UNL     1      10.176   4.623  -2.529  0.00  0.00    +0.155 HD
BRANCH  30  35
ATOM     34  C   UNL     1       9.482   4.125   1.381  0.00  0.00    +0.013 C 
ATOM     35  C   UNL     1       9.830   4.560  -0.037  0.00  0.00    +0.093 C 
ENDBRANCH  30  35
ENDBRANCH  24  32
ENDBRANCH  23  27
ENDBRANCH   1  23
TORSDOF 5
