REMARK  Name = L38
REMARK  8 active torsions:
REMARK  status: ('A' for Active; 'I' for Inactive)
REMARK    1  A    between atoms: C_1  and  C_2
REMARK    2  A    between atoms: C_2  and  C_3
REMARK    3  A    between atoms: N_5  and  C_6
REMARK    4  A    between atoms: C_9  and  S_12
REMARK    5  A    between atoms: S_12  and  C_13
REMARK    6  A    between atoms: C_15  and  N_26
REMARK    7  A    between atoms: N_22  and  C_25
REMARK    8  A    between atoms: C_30  and  C_32
REMARK                            x       y       z     vdW  Elec       q    Type
REMARK                         _______ _______ _______ _____ _____    ______ ____
ROOT
ATOM      1  C   UNL     1       5.820  -4.855   6.680  0.00  0.00    +0.196 A 
ATOM      2  N   UNL     1       5.265  -4.811   7.906  0.00  0.00    -0.206 NA
ATOM      3  C   UNL     1       4.482  -5.845   8.237  0.00  0.00    +0.130 A 
ATOM      4  C   UNL     1       4.341  -6.928   7.393  0.00  0.00    +0.087 A 
ATOM      5  C   UNL     1       4.987  -6.933   6.180  0.00  0.00    +0.128 A 
ATOM      6  N   UNL     1       5.700  -5.867   5.802  0.00  0.00    -0.207 NA
ATOM      7  N   UNL     1       5.003  -8.057   5.378  0.00  0.00    -0.313 N 
ATOM      8  C   UNL     1       4.607  -9.371   5.895  0.00  0.00    +0.122 C 
ATOM      9  C   UNL     1       5.346 -10.471   5.109  0.00  0.00    +0.103 C 
ATOM     10  N   UNL     1       5.100 -10.384   3.654  0.00  0.00    -0.302 NA
ATOM     11  C   UNL     1       5.497  -9.035   3.173  0.00  0.00    +0.103 C 
ATOM     12  C   UNL     1       4.794  -7.885   3.937  0.00  0.00    +0.122 C 
ATOM     13  C   UNL     1       5.857 -11.422   2.958  0.00  0.00    +0.105 C 
ENDROOT
BRANCH   3  14
ATOM     14  N   UNL     1       3.829  -5.812   9.484  0.00  0.00    -0.283 N 
ATOM     15  C   UNL     1       2.726  -6.496   9.870  0.00  0.00    +0.146 A 
ATOM     16  N   UNL     1       1.926  -7.218   9.078  0.00  0.00    -0.158 NA
ATOM     17  N   UNL     1       0.983  -7.705   9.884  0.00  0.00    -0.280 N 
ATOM     18  C   UNL     1       1.142  -7.344  11.189  0.00  0.00    +0.035 A 
ATOM     19  C   UNL     1       2.259  -6.532  11.207  0.00  0.00    +0.068 A 
ATOM     20  C   UNL     1       0.226  -7.814  12.247  0.00  0.00    +0.065 C 
ATOM     21  H   UNL     1       4.156  -5.019  10.021  0.00  0.00    +0.155 HD
ATOM     22  H   UNL     1       0.262  -8.290   9.474  0.00  0.00    +0.189 HD
ENDBRANCH   3  14
BRANCH   1  23
ATOM     23  S   UNL     1       6.867  -3.515   6.145  0.00  0.00    -0.050 S 
BRANCH  23  27
ATOM     24  C   UNL     1       5.369   0.147   8.474  0.00  0.00    +0.033 A 
ATOM     25  C   UNL     1       6.316  -0.718   9.027  0.00  0.00    +0.024 A 
ATOM     26  C   UNL     1       6.756  -1.843   8.326  0.00  0.00    +0.017 A 
ATOM     27  C   UNL     1       6.237  -2.133   7.067  0.00  0.00    +0.016 A 
ATOM     28  C   UNL     1       5.267  -1.288   6.518  0.00  0.00    +0.017 A 
ATOM     29  C   UNL     1       4.828  -0.158   7.224  0.00  0.00    +0.024 A 
BRANCH  24  32
ATOM     30  C   UNL     1       5.583   1.930  10.192  0.00  0.00    +0.217 C 
ATOM     31  O   UNL     1       6.658   1.580  10.672  0.00  0.00    -0.275 OA
ATOM     32  N   UNL     1       4.932   1.321   9.129  0.00  0.00    -0.286 N 
ATOM     33  H   UNL     1       4.160   1.821   8.706  0.00  0.00    +0.155 HD
BRANCH  30  35
ATOM     34  C   UNL     1       5.626   3.798  11.860  0.00  0.00    +0.013 C 
ATOM     35  C   UNL     1       4.839   3.137  10.737  0.00  0.00    +0.093 C 
ENDBRANCH  30  35
ENDBRANCH  24  32
ENDBRANCH  23  27
ENDBRANCH   1  23
TORSDOF 5
