REMARK  Name = L64
REMARK  9 active torsions:
REMARK  status: ('A' for Active; 'I' for Inactive)
REMARK    1  A    between atoms: C_1  and  C_2
REMARK    2  A    between atoms: C_10  and  S_17
REMARK    3  A    between atoms: S_17  and  C_18
REMARK    4  A    between atoms: C_21  and  N_24
REMARK    5  A    between atoms: C_25  and  C_27
REMARK    6  A    between atoms: C_27  and  N_28
REMARK    7  A    between atoms: C_31  and  C_33
REMARK    8  A    between atoms: N_35  and  C_36
REMARK    9  A    between atoms: C_36  and  C_37
REMARK                            x       y       z     vdW  Elec       q    Type
REMARK                         _______ _______ _______ _____ _____    ______ ____
ROOT
ATOM      1  C   UNL     1       0.300   4.773   3.717  0.00  0.00    +0.016 A 
ATOM      2  C   UNL     1      -0.969   4.727   4.309  0.00  0.00    +0.017 A 
ATOM      3  C   UNL     1      -1.233   3.856   5.375  0.00  0.00    +0.024 A 
ATOM      4  C   UNL     1      -0.232   3.014   5.854  0.00  0.00    +0.033 A 
ATOM      5  C   UNL     1       1.041   3.056   5.283  0.00  0.00    +0.024 A 
ATOM      6  C   UNL     1       1.299   3.921   4.204  0.00  0.00    +0.017 A 
ENDROOT
BRANCH   4   7
ATOM      7  N   UNL     1      -0.516   2.171   6.944  0.00  0.00    -0.284 N 
ATOM      8  C   UNL     1      -0.995   0.879   6.765  0.00  0.00    +0.231 C 
ATOM      9  O   UNL     1      -1.284   0.402   5.668  0.00  0.00    -0.274 OA
ATOM     10  H   UNL     1      -0.134   2.440   7.843  0.00  0.00    +0.155 HD
BRANCH   8  11
ATOM     11  C   UNL     1      -1.156   0.077   8.072  0.00  0.00    +0.180 C 
BRANCH  11  12
ATOM     12  N   UNL     1      -0.293  -1.116   8.188  0.00  0.00    -0.293 NA
ATOM     13  C   UNL     1       1.137  -0.836   8.058  0.00  0.00    +0.085 C 
ATOM     14  C   UNL     1       1.509  -1.297   6.661  0.00  0.00    +0.029 C 
ATOM     15  C   UNL     1       0.656  -2.545   6.477  0.00  0.00    +0.090 C 
ATOM     16  C   UNL     1      -0.620  -2.219   7.261  0.00  0.00    +0.097 C 
BRANCH  15  17
ATOM     17  C   UNL     1       1.371  -3.786   7.006  0.00  0.00    +0.218 C 
ATOM     18  O   UNL     1       2.496  -3.760   7.499  0.00  0.00    -0.275 OA
ATOM     19  N   UNL     1       0.678  -4.967   6.876  0.00  0.00    -0.310 N 
ATOM     20  H   UNL     1      -0.146  -5.003   6.289  0.00  0.00    +0.149 HD
BRANCH  19  21
ATOM     21  C   UNL     1       1.236  -6.218   7.380  0.00  0.00    +0.176 C 
BRANCH  21  22
ATOM     22  C   UNL     1       1.556  -6.231   8.879  0.00  0.00    +0.358 C 
ATOM     23  F   UNL     1       0.413  -6.031   9.588  0.00  0.00    -0.208 F 
ATOM     24  F   UNL     1       2.004  -7.468   9.227  0.00  0.00    -0.208 F 
ENDBRANCH  21  22
ENDBRANCH  19  21
ENDBRANCH  15  17
ENDBRANCH  11  12
ENDBRANCH   8  11
ENDBRANCH   4   7
BRANCH   1  25
ATOM     25  S   UNL     1       0.541   5.813   2.284  0.00  0.00    -0.048 S 
BRANCH  25  35
ATOM     26  C   UNL     1      -1.026   9.021   7.844  0.00  0.00    +0.065 C 
ATOM     27  C   UNL     1       0.373   8.706   7.489  0.00  0.00    +0.035 A 
ATOM     28  C   UNL     1       1.042   8.741   6.288  0.00  0.00    +0.068 A 
ATOM     29  C   UNL     1       2.361   8.307   6.574  0.00  0.00    +0.146 A 
ATOM     30  N   UNL     1       2.524   8.091   7.880  0.00  0.00    -0.158 NA
ATOM     31  N   UNL     1       1.303   8.293   8.402  0.00  0.00    -0.280 N 
ATOM     32  N   UNL     1       3.362   8.224   5.675  0.00  0.00    -0.281 N 
ATOM     33  C   UNL     1       3.142   7.877   4.362  0.00  0.00    +0.153 A 
ATOM     34  N   UNL     1       2.108   7.165   3.998  0.00  0.00    -0.203 NA
ATOM     35  C   UNL     1       1.937   6.818   2.688  0.00  0.00    +0.214 A 
ATOM     36  N   UNL     1       2.683   7.180   1.692  0.00  0.00    -0.139 NA
ATOM     37  N   UNL     1       3.736   7.927   2.046  0.00  0.00    -0.234 N 
ATOM     38  C   UNL     1       4.043   8.281   3.325  0.00  0.00    +0.105 A 
ATOM     39  C   UNL     1       5.202   9.026   3.308  0.00  0.00    +0.033 A 
ATOM     40  C   UNL     1       5.612   9.124   1.950  0.00  0.00    +0.022 A 
ATOM     41  C   UNL     1       4.675   8.448   1.197  0.00  0.00    +0.113 A 
ATOM     42  H   UNL     1       1.174   8.140   9.396  0.00  0.00    +0.189 HD
ATOM     43  H   UNL     1       4.300   8.094   6.028  0.00  0.00    +0.155 HD
ENDBRANCH  25  35
ENDBRANCH   1  25
TORSDOF 8
