REMARK  Name = L35
REMARK  7 active torsions:
REMARK  status: ('A' for Active; 'I' for Inactive)
REMARK    1  A    between atoms: C_1  and  C_2
REMARK    2  A    between atoms: C_2  and  C_3
REMARK    3  A    between atoms: N_5  and  C_6
REMARK    4  A    between atoms: C_9  and  S_12
REMARK    5  A    between atoms: S_12  and  C_13
REMARK    6  A    between atoms: C_15  and  N_25
REMARK    7  A    between atoms: C_29  and  C_31
REMARK                            x       y       z     vdW  Elec       q    Type
REMARK                         _______ _______ _______ _____ _____    ______ ____
ROOT
ATOM      1  C   UNL     1       5.856   1.086   8.327  0.00  0.00    +0.196 A 
ATOM      2  N   UNL     1       5.198   1.903   9.171  0.00  0.00    -0.206 NA
ATOM      3  C   UNL     1       4.351   1.321  10.040  0.00  0.00    +0.130 A 
ATOM      4  C   UNL     1       4.231  -0.050  10.100  0.00  0.00    +0.087 A 
ATOM      5  C   UNL     1       4.916  -0.811   9.178  0.00  0.00    +0.127 A 
ATOM      6  N   UNL     1       5.741  -0.248   8.294  0.00  0.00    -0.207 NA
ATOM      7  N   UNL     1       4.628  -2.174   9.095  0.00  0.00    -0.315 N 
ATOM      8  C   UNL     1       4.865  -2.778   7.786  0.00  0.00    +0.106 C 
ATOM      9  C   UNL     1       4.042  -4.064   7.716  0.00  0.00    +0.019 C 
ATOM     10  C   UNL     1       4.350  -4.998   8.889  0.00  0.00    +0.003 C 
ATOM     11  C   UNL     1       4.272  -4.273  10.236  0.00  0.00    +0.019 C 
ATOM     12  C   UNL     1       5.088  -2.980  10.226  0.00  0.00    +0.106 C 
ENDROOT
BRANCH   3  13
ATOM     13  N   UNL     1       3.560   2.184  10.820  0.00  0.00    -0.283 N 
ATOM     14  C   UNL     1       2.441   1.931  11.540  0.00  0.00    +0.146 A 
ATOM     15  N   UNL     1       1.986   0.742  11.945  0.00  0.00    -0.158 NA
ATOM     16  N   UNL     1       0.835   1.003  12.573  0.00  0.00    -0.280 N 
ATOM     17  C   UNL     1       0.528   2.331  12.621  0.00  0.00    +0.035 A 
ATOM     18  C   UNL     1       1.557   2.962  11.954  0.00  0.00    +0.068 A 
ATOM     19  C   UNL     1      -0.695   2.838  13.280  0.00  0.00    +0.065 C 
ATOM     20  H   UNL     1       3.796   3.137  10.573  0.00  0.00    +0.155 HD
ATOM     21  H   UNL     1       0.306   0.221  12.945  0.00  0.00    +0.189 HD
ENDBRANCH   3  13
BRANCH   1  22
ATOM     22  S   UNL     1       6.965   1.834   7.147  0.00  0.00    -0.050 S 
BRANCH  22  26
ATOM     23  C   UNL     1       6.672  -1.048   3.553  0.00  0.00    +0.033 A 
ATOM     24  C   UNL     1       5.774   0.011   3.711  0.00  0.00    +0.024 A 
ATOM     25  C   UNL     1       5.862   0.878   4.806  0.00  0.00    +0.017 A 
ATOM     26  C   UNL     1       6.847   0.693   5.776  0.00  0.00    +0.016 A 
ATOM     27  C   UNL     1       7.742  -0.372   5.632  0.00  0.00    +0.017 A 
ATOM     28  C   UNL     1       7.645  -1.250   4.537  0.00  0.00    +0.024 A 
BRANCH  23  31
ATOM     29  C   UNL     1       5.925  -1.711   1.270  0.00  0.00    +0.217 C 
ATOM     30  O   UNL     1       5.313  -0.686   0.982  0.00  0.00    -0.275 OA
ATOM     31  N   UNL     1       6.631  -1.928   2.444  0.00  0.00    -0.286 N 
ATOM     32  H   UNL     1       7.239  -2.739   2.481  0.00  0.00    +0.155 HD
BRANCH  29  34
ATOM     33  C   UNL     1       5.251  -2.560  -0.989  0.00  0.00    +0.013 C 
ATOM     34  C   UNL     1       5.975  -2.887   0.310  0.00  0.00    +0.093 C 
ENDBRANCH  29  34
ENDBRANCH  23  31
ENDBRANCH  22  26
ENDBRANCH   1  22
TORSDOF 5
