REMARK  Name = L72
REMARK  7 active torsions:
REMARK  status: ('A' for Active; 'I' for Inactive)
REMARK    1  A    between atoms: C_1  and  C_2
REMARK    2  A    between atoms: C_10  and  S_17
REMARK    3  A    between atoms: S_17  and  C_18
REMARK    4  A    between atoms: C_21  and  N_24
REMARK    5  A    between atoms: C_25  and  C_27
REMARK    6  A    between atoms: C_27  and  N_28
REMARK    7  A    between atoms: C_31  and  C_33
REMARK                            x       y       z     vdW  Elec       q    Type
REMARK                         _______ _______ _______ _____ _____    ______ ____
ROOT
ATOM      1  C   UNL     1       0.281   4.740   3.692  0.00  0.00    +0.016 A 
ATOM      2  C   UNL     1      -0.068   3.401   3.477  0.00  0.00    +0.017 A 
ATOM      3  C   UNL     1      -0.300   2.539   4.555  0.00  0.00    +0.024 A 
ATOM      4  C   UNL     1      -0.201   3.013   5.861  0.00  0.00    +0.033 A 
ATOM      5  C   UNL     1       0.127   4.349   6.094  0.00  0.00    +0.024 A 
ATOM      6  C   UNL     1       0.390   5.204   5.010  0.00  0.00    +0.017 A 
ENDROOT
BRANCH   4   7
ATOM      7  N   UNL     1      -0.502   2.132   6.919  0.00  0.00    -0.284 N 
ATOM      8  C   UNL     1       0.515   1.391   7.527  0.00  0.00    +0.231 C 
ATOM      9  O   UNL     1       1.677   1.357   7.128  0.00  0.00    -0.274 OA
ATOM     10  H   UNL     1      -1.237   2.438   7.542  0.00  0.00    +0.155 HD
BRANCH   8  11
ATOM     11  C   UNL     1       0.027   0.590   8.754  0.00  0.00    +0.180 C 
BRANCH  11  12
ATOM     12  N   UNL     1       0.818   0.875   9.964  0.00  0.00    -0.293 NA
ATOM     13  C   UNL     1       0.404   0.061  11.115  0.00  0.00    +0.085 C 
ATOM     14  C   UNL     1      -0.456   0.984  11.960  0.00  0.00    +0.029 C 
ATOM     15  C   UNL     1       0.264   2.322  11.833  0.00  0.00    +0.090 C 
ATOM     16  C   UNL     1       0.777   2.284  10.390  0.00  0.00    +0.097 C 
BRANCH  15  17
ATOM     17  C   UNL     1       1.410   2.485  12.836  0.00  0.00    +0.220 C 
ATOM     18  O   UNL     1       1.653   1.602  13.661  0.00  0.00    -0.275 OA
ATOM     19  N   UNL     1       2.147   3.664  12.796  0.00  0.00    -0.301 N 
ATOM     20  C   UNL     1       3.429   3.718  13.500  0.00  0.00    +0.108 C 
ATOM     21  C   UNL     1       3.549   4.975  14.355  0.00  0.00    +0.019 C 
ATOM     22  C   UNL     1       3.247   6.232  13.542  0.00  0.00    +0.003 C 
ATOM     23  C   UNL     1       1.896   6.111  12.843  0.00  0.00    +0.019 C 
ATOM     24  C   UNL     1       1.827   4.845  11.994  0.00  0.00    +0.108 C 
ENDBRANCH  15  17
ENDBRANCH  11  12
ENDBRANCH   8  11
ENDBRANCH   4   7
BRANCH   1  25
ATOM     25  S   UNL     1       0.708   5.750   2.282  0.00  0.00    -0.048 S 
BRANCH  25  35
ATOM     26  C   UNL     1      -5.537   3.547   2.382  0.00  0.00    +0.065 C 
ATOM     27  C   UNL     1      -5.139   4.805   3.046  0.00  0.00    +0.035 A 
ATOM     28  C   UNL     1      -4.259   5.794   2.677  0.00  0.00    +0.068 A 
ATOM     29  C   UNL     1      -4.292   6.744   3.722  0.00  0.00    +0.146 A 
ATOM     30  N   UNL     1      -5.189   6.411   4.654  0.00  0.00    -0.158 NA
ATOM     31  N   UNL     1      -5.645   5.211   4.249  0.00  0.00    -0.280 N 
ATOM     32  N   UNL     1      -3.601   7.902   3.734  0.00  0.00    -0.281 N 
ATOM     33  C   UNL     1      -2.355   8.021   3.156  0.00  0.00    +0.153 A 
ATOM     34  N   UNL     1      -1.565   7.003   2.983  0.00  0.00    -0.203 NA
ATOM     35  C   UNL     1      -0.322   7.173   2.435  0.00  0.00    +0.214 A 
ATOM     36  N   UNL     1       0.171   8.284   1.982  0.00  0.00    -0.139 NA
ATOM     37  N   UNL     1      -0.641   9.337   2.126  0.00  0.00    -0.234 N 
ATOM     38  C   UNL     1      -1.866   9.296   2.717  0.00  0.00    +0.105 A 
ATOM     39  C   UNL     1      -2.399  10.570   2.710  0.00  0.00    +0.033 A 
ATOM     40  C   UNL     1      -1.456  11.408   2.063  0.00  0.00    +0.022 A 
ATOM     41  C   UNL     1      -0.387  10.615   1.704  0.00  0.00    +0.113 A 
ATOM     42  H   UNL     1      -6.317   4.731   4.837  0.00  0.00    +0.189 HD
ATOM     43  H   UNL     1      -3.872   8.611   4.397  0.00  0.00    +0.155 HD
ENDBRANCH  25  35
ENDBRANCH   1  25
TORSDOF 6
