REMARK  Name = L176
REMARK  4 active torsions:
REMARK  status: ('A' for Active; 'I' for Inactive)
REMARK    1  A    between atoms: C_3  and  C_25
REMARK    2  A    between atoms: C_5  and  N_7
REMARK    3  A    between atoms: N_14  and  C_15
REMARK    4  A    between atoms: C_19  and  C_21
REMARK                            x       y       z     vdW  Elec       q    Type
REMARK                         _______ _______ _______ _____ _____    ______ ____
ROOT
ATOM      1  N   UNL     1      -1.689  -2.228   0.192  0.00  0.00    -0.284 N 
ATOM      2  C   UNL     1      -1.271  -3.563   0.185  0.00  0.00    +0.221 A 
ATOM      3  N   UNL     1      -1.620  -4.311  -0.867  0.00  0.00    -0.223 NA
ATOM      4  C   UNL     1      -1.188  -5.586  -0.864  0.00  0.00    +0.118 A 
ATOM      5  C   UNL     1      -0.419  -6.130   0.138  0.00  0.00    +0.063 A 
ATOM      6  C   UNL     1      -0.132  -5.302   1.198  0.00  0.00    +0.128 A 
ATOM      7  N   UNL     1      -0.558  -4.031   1.218  0.00  0.00    -0.199 NA
ATOM      8  N   UNL     1       0.600  -5.815   2.295  0.00  0.00    -0.299 N 
ATOM      9  H   UNL     1      -2.070  -2.019  -0.722  0.00  0.00    +0.155 HD
ATOM     10  H   UNL     1       1.482  -6.207   1.989  0.00  0.00    +0.154 HD
ENDROOT
BRANCH   1  15
ATOM     11  C   UNL     1       1.082  -0.048   1.434  0.00  0.00    +0.003 A 
ATOM     12  C   UNL     1       0.357   1.032   1.930  0.00  0.00    +0.013 A 
ATOM     13  C   UNL     1      -1.039   1.032   1.847  0.00  0.00    +0.038 A 
ATOM     14  C   UNL     1      -1.708  -0.041   1.238  0.00  0.00    +0.036 A 
ATOM     15  C   UNL     1      -0.990  -1.153   0.777  0.00  0.00    +0.034 A 
ATOM     16  C   UNL     1       0.409  -1.129   0.866  0.00  0.00    +0.023 A 
BRANCH  13  17
ATOM     17  C   UNL     1      -1.771   2.182   2.434  0.00  0.00    +0.242 C 
ATOM     18  O   UNL     1      -1.253   3.285   2.550  0.00  0.00    -0.270 OA
ATOM     19  N   UNL     1      -3.034   1.944   2.902  0.00  0.00    -0.325 N 
ATOM     20  H   UNL     1      -3.366   1.005   3.076  0.00  0.00    +0.145 HD
ATOM     21  H   UNL     1      -3.452   2.691   3.440  0.00  0.00    +0.145 HD
ENDBRANCH  13  17
ENDBRANCH   1  15
BRANCH   8  22
ATOM     22  C   UNL     1       0.662  -5.227   3.578  0.00  0.00    +0.033 A 
ATOM     23  C   UNL     1       1.847  -5.258   4.322  0.00  0.00    +0.023 A 
ATOM     24  C   UNL     1       1.902  -4.692   5.600  0.00  0.00    +0.002 A 
ATOM     25  C   UNL     1       0.768  -4.102   6.159  0.00  0.00    +0.012 A 
ATOM     26  C   UNL     1      -0.435  -4.073   5.444  0.00  0.00    +0.057 A 
ATOM     27  C   UNL     1      -0.471  -4.641   4.161  0.00  0.00    +0.035 A 
BRANCH  26  28
ATOM     28  C   UNL     1      -1.687  -3.461   6.014  0.00  0.00    +0.417 C 
ATOM     29  F   UNL     1      -1.520  -2.945   7.265  0.00  0.00    -0.166 F 
ATOM     30  F   UNL     1      -2.174  -2.439   5.256  0.00  0.00    -0.166 F 
ATOM     31  F   UNL     1      -2.705  -4.361   6.122  0.00  0.00    -0.166 F 
ENDBRANCH  26  28
ENDBRANCH   8  22
TORSDOF 4
