REMARK  Name = L115
REMARK  7 active torsions:
REMARK  status: ('A' for Active; 'I' for Inactive)
REMARK    1  A    between atoms: C_1  and  N_2
REMARK    2  A    between atoms: N_2  and  C_3
REMARK    3  A    between atoms: N_2  and  C_4
REMARK    4  A    between atoms: C_7  and  C_10
REMARK    5  A    between atoms: C_16  and  N_19
REMARK    6  A    between atoms: N_22  and  C_25
REMARK    7  A    between atoms: C_25  and  C_26
REMARK                            x       y       z     vdW  Elec       q    Type
REMARK                         _______ _______ _______ _____ _____    ______ ____
ROOT
ATOM      1  C   UNL     1       5.415  -3.760  -3.161  0.00  0.00    +0.141 A 
ATOM      2  N   UNL     1       5.652  -5.021  -2.847  0.00  0.00    -0.208 NA
ATOM      3  C   UNL     1       6.432  -5.517  -3.856  0.00  0.00    +0.180 A 
ATOM      4  N   UNL     1       6.917  -6.771  -3.915  0.00  0.00    -0.234 NA
ATOM      5  C   UNL     1       7.668  -7.013  -5.009  0.00  0.00    +0.115 A 
ATOM      6  C   UNL     1       7.941  -6.098  -6.023  0.00  0.00    +0.045 A 
ATOM      7  C   UNL     1       7.427  -4.795  -5.983  0.00  0.00    +0.059 A 
ATOM      8  C   UNL     1       6.671  -4.560  -4.830  0.00  0.00    +0.107 A 
ATOM      9  N   UNL     1       6.053  -3.444  -4.335  0.00  0.00    -0.335 N 
ATOM     10  H   UNL     1       6.072  -2.537  -4.769  0.00  0.00    +0.167 HD
ENDROOT
BRANCH   1  14
ATOM     11  C   UNL     1       3.068  -0.974  -0.813  0.00  0.00    +0.029 A 
ATOM     12  C   UNL     1       3.339  -2.282  -0.385  0.00  0.00    +0.024 A 
ATOM     13  C   UNL     1       4.099  -3.179  -1.151  0.00  0.00    +0.013 A 
ATOM     14  C   UNL     1       4.617  -2.803  -2.390  0.00  0.00    +0.017 A 
ATOM     15  C   UNL     1       4.340  -1.511  -2.847  0.00  0.00    +0.013 A 
ATOM     16  C   UNL     1       3.583  -0.621  -2.070  0.00  0.00    +0.024 A 
BRANCH  11  18
ATOM     17  C   UNL     1       1.856  -0.459   1.281  0.00  0.00    +0.129 C 
ATOM     18  N   UNL     1       2.323  -0.082  -0.048  0.00  0.00    -0.336 N 
ATOM     19  C   UNL     1       2.218   1.321  -0.429  0.00  0.00    +0.129 C 
ENDBRANCH  11  18
ENDBRANCH   1  14
BRANCH   7  20
ATOM     20  N   UNL     1       7.643  -3.853  -6.964  0.00  0.00    -0.326 N 
ATOM     21  C   UNL     1       8.879  -3.806  -7.756  0.00  0.00    +0.120 C 
ATOM     22  C   UNL     1       8.570  -3.869  -9.276  0.00  0.00    +0.104 C 
ATOM     23  N   UNL     1       7.545  -2.905  -9.769  0.00  0.00    -0.291 NA
ATOM     24  C   UNL     1       6.336  -3.080  -8.921  0.00  0.00    +0.104 C 
ATOM     25  C   UNL     1       6.563  -2.955  -7.398  0.00  0.00    +0.120 C 
BRANCH  23  26
ATOM     26  C   UNL     1       8.086  -1.524  -9.694  0.00  0.00    +0.181 C 
BRANCH  26  27
ATOM     27  C   UNL     1       7.058  -0.476 -10.118  0.00  0.00    +0.233 C 
ATOM     28  O   UNL     1       6.805   0.468  -9.374  0.00  0.00    -0.274 OA
ATOM     29  N   UNL     1       6.493  -0.750 -11.344  0.00  0.00    -0.264 N 
ATOM     30  C   UNL     1       5.538   0.064 -11.880  0.00  0.00    +0.164 A 
ATOM     31  N   UNL     1       5.186   1.268 -11.507  0.00  0.00    -0.233 NA
ATOM     32  C   UNL     1       4.128   1.697 -12.278  0.00  0.00    +0.120 A 
ATOM     33  C   UNL     1       3.696   0.806 -13.238  0.00  0.00    +0.068 A 
ATOM     34  S   UNL     1       4.685  -0.599 -13.202  0.00  0.00    -0.061 S 
ATOM     35  H   UNL     1       6.635  -1.665 -11.751  0.00  0.00    +0.157 HD
ENDBRANCH  26  27
ENDBRANCH  23  26
ENDBRANCH   7  20
TORSDOF 5
