REMARK  Name = L57
REMARK  5 active torsions:
REMARK  status: ('A' for Active; 'I' for Inactive)
REMARK    1  A    between atoms: C_1  and  C_2
REMARK    2  A    between atoms: C_10  and  S_17
REMARK    3  A    between atoms: S_17  and  C_18
REMARK    4  A    between atoms: C_21  and  N_24
REMARK    5  A    between atoms: C_25  and  C_27
REMARK                            x       y       z     vdW  Elec       q    Type
REMARK                         _______ _______ _______ _____ _____    ______ ____
ROOT
ATOM      1  C   UNL     1      -1.359  -0.193   2.869  0.00  0.00    +0.065 C 
ATOM      2  C   UNL     1      -0.248   0.080   1.936  0.00  0.00    +0.035 A 
ATOM      3  C   UNL     1       0.557   1.184   1.781  0.00  0.00    +0.068 A 
ATOM      4  C   UNL     1       1.406   0.895   0.689  0.00  0.00    +0.146 A 
ATOM      5  N   UNL     1       1.193  -0.347   0.239  0.00  0.00    -0.158 NA
ATOM      6  N   UNL     1       0.178  -0.807   0.991  0.00  0.00    -0.280 N 
ATOM      7  N   UNL     1       2.330   1.704   0.126  0.00  0.00    -0.281 N 
ATOM      8  C   UNL     1       2.229   3.083   0.120  0.00  0.00    +0.153 A 
ATOM      9  N   UNL     1       1.584   3.758   1.025  0.00  0.00    -0.203 NA
ATOM     10  C   UNL     1       1.507   5.125   0.958  0.00  0.00    +0.214 A 
ATOM     11  N   UNL     1       2.036   5.885   0.056  0.00  0.00    -0.139 NA
ATOM     12  N   UNL     1       2.708   5.210  -0.879  0.00  0.00    -0.234 N 
ATOM     13  C   UNL     1       2.852   3.857  -0.919  0.00  0.00    +0.105 A 
ATOM     14  C   UNL     1       3.591   3.535  -2.041  0.00  0.00    +0.033 A 
ATOM     15  C   UNL     1       3.905   4.753  -2.696  0.00  0.00    +0.022 A 
ATOM     16  C   UNL     1       3.350   5.769  -1.950  0.00  0.00    +0.113 A 
ATOM     17  H   UNL     1      -0.179  -1.737   0.798  0.00  0.00    +0.189 HD
ATOM     18  H   UNL     1       2.821   1.288  -0.653  0.00  0.00    +0.155 HD
ENDROOT
BRANCH  10  19
ATOM     19  S   UNL     1       0.635   5.921   2.259  0.00  0.00    -0.048 S 
BRANCH  19  20
ATOM     20  C   UNL     1      -1.031   5.920   1.632  0.00  0.00    +0.016 A 
ATOM     21  C   UNL     1      -2.038   5.356   2.415  0.00  0.00    +0.017 A 
ATOM     22  C   UNL     1      -3.374   5.401   2.005  0.00  0.00    +0.024 A 
ATOM     23  C   UNL     1      -3.740   6.018   0.808  0.00  0.00    +0.033 A 
ATOM     24  C   UNL     1      -2.730   6.584   0.019  0.00  0.00    +0.024 A 
ATOM     25  C   UNL     1      -1.386   6.539   0.430  0.00  0.00    +0.017 A 
BRANCH  23  26
ATOM     26  N   UNL     1      -5.080   6.122   0.365  0.00  0.00    -0.285 N 
ATOM     27  C   UNL     1      -6.197   5.622   1.010  0.00  0.00    +0.220 C 
ATOM     28  O   UNL     1      -6.222   4.969   2.045  0.00  0.00    -0.275 OA
ATOM     29  H   UNL     1      -5.234   6.632  -0.494  0.00  0.00    +0.155 HD
BRANCH  27  30
ATOM     30  C   UNL     1      -7.493   5.975   0.348  0.00  0.00    +0.075 C 
ATOM     31  C   UNL     1      -8.792   5.390   0.868  0.00  0.00    +0.013 C 
ATOM     32  C   UNL     1      -8.485   6.840   1.096  0.00  0.00    +0.013 C 
ENDBRANCH  27  30
ENDBRANCH  23  26
ENDBRANCH  19  20
ENDBRANCH  10  19
TORSDOF 4
