REMARK  Name = L140
REMARK  7 active torsions:
REMARK  status: ('A' for Active; 'I' for Inactive)
REMARK    1  A    between atoms: C_1  and  N_2
REMARK    2  A    between atoms: C_6  and  C_7
REMARK    3  A    between atoms: C_7  and  N_8
REMARK    4  A    between atoms: N_11  and  C_14
REMARK    5  A    between atoms: C_22  and  C_24
REMARK    6  A    between atoms: C_27  and  C_30
REMARK    7  A    between atoms: C_30  and  N_31
REMARK                            x       y       z     vdW  Elec       q    Type
REMARK                         _______ _______ _______ _____ _____    ______ ____
ROOT
ATOM      1  C   UNL     1       4.119  -1.237   0.106  0.00  0.00    +0.073 A 
ATOM      2  C   UNL     1       3.468  -2.447   0.536  0.00  0.00    +0.108 A 
ATOM      3  C   UNL     1       4.067  -3.705   0.428  0.00  0.00    +0.180 A 
ATOM      4  N   UNL     1       5.285  -3.936  -0.087  0.00  0.00    -0.233 NA
ATOM      5  C   UNL     1       5.920  -2.832  -0.489  0.00  0.00    +0.130 A 
ATOM      6  C   UNL     1       5.426  -1.525  -0.415  0.00  0.00    +0.059 A 
ATOM      7 BR   UNL     1       6.735  -0.237  -0.949  0.00  0.00    -0.047 Br
ATOM      8  N   UNL     1       3.275  -4.715   0.874  0.00  0.00    -0.208 NA
ATOM      9  C   UNL     1       2.143  -4.159   1.243  0.00  0.00    +0.141 A 
ATOM     10  N   UNL     1       2.232  -2.788   1.076  0.00  0.00    -0.335 N 
ATOM     11  H   UNL     1       1.462  -2.168   1.253  0.00  0.00    +0.167 HD
ENDROOT
BRANCH   1  15
ATOM     12  N   UNL     1       1.624   2.046  -0.335  0.00  0.00    -0.292 NA
ATOM     13  C   UNL     1       1.824   1.717   1.060  0.00  0.00    +0.104 C 
ATOM     14  C   UNL     1       2.440   0.308   1.110  0.00  0.00    +0.120 C 
ATOM     15  N   UNL     1       3.595   0.082   0.206  0.00  0.00    -0.325 N 
ATOM     16  C   UNL     1       3.728   0.968  -0.998  0.00  0.00    +0.120 C 
ATOM     17  C   UNL     1       2.871   2.256  -1.018  0.00  0.00    +0.104 C 
BRANCH  12  18
ATOM     18  C   UNL     1       0.370   2.553  -0.833  0.00  0.00    +0.158 C 
BRANCH  18  24
ATOM     19  C   UNL     1       0.775   0.319  -2.970  0.00  0.00    +0.150 C 
ATOM     20  N   UNL     1      -0.382   0.476  -2.128  0.00  0.00    -0.336 N 
ATOM     21  C   UNL     1      -1.476  -0.345  -2.160  0.00  0.00    +0.106 A 
ATOM     22  C   UNL     1      -2.328   0.163  -1.205  0.00  0.00    +0.130 A 
ATOM     23  N   UNL     1      -1.765   1.242  -0.584  0.00  0.00    -0.239 NA
ATOM     24  C   UNL     1      -0.589   1.436  -1.160  0.00  0.00    +0.124 A 
ENDBRANCH  18  24
ENDBRANCH  12  18
ENDBRANCH   1  15
BRANCH   9  25
ATOM     25  C   UNL     1       0.964  -4.928   1.680  0.00  0.00    +0.017 A 
ATOM     26  C   UNL     1      -0.097  -4.412   2.433  0.00  0.00    +0.012 A 
ATOM     27  C   UNL     1      -1.174  -5.238   2.825  0.00  0.00    +0.005 A 
ATOM     28  C   UNL     1      -1.221  -6.592   2.464  0.00  0.00    -0.033 A 
ATOM     29  C   UNL     1      -0.150  -7.111   1.730  0.00  0.00    +0.005 A 
ATOM     30  C   UNL     1       0.915  -6.290   1.338  0.00  0.00    +0.012 A 
BRANCH  28  31
ATOM     31  C   UNL     1      -2.323  -7.522   2.929  0.00  0.00    +0.119 C 
BRANCH  31  32
ATOM     32  N   UNL     1      -3.469  -7.799   2.054  0.00  0.00    -0.294 NA
ATOM     33  C   UNL     1      -3.183  -8.242   0.685  0.00  0.00    +0.113 C 
ATOM     34  C   UNL     1      -3.036  -7.096  -0.333  0.00  0.00    +0.175 C 
ATOM     35  O   UNL     1      -4.156  -6.201  -0.294  0.00  0.00    -0.377 OA
ATOM     36  C   UNL     1      -4.350  -5.677   1.025  0.00  0.00    +0.175 C 
ATOM     37  C   UNL     1      -4.540  -6.799   2.053  0.00  0.00    +0.113 C 
ENDBRANCH  31  32
ENDBRANCH  28  31
ENDBRANCH   9  25
TORSDOF 6
