REMARK  Name = L125
REMARK  6 active torsions:
REMARK  status: ('A' for Active; 'I' for Inactive)
REMARK    1  A    between atoms: C_1  and  C_2
REMARK    2  A    between atoms: C_4  and  C_7
REMARK    3  A    between atoms: C_7  and  N_8
REMARK    4  A    between atoms: N_11  and  C_14
REMARK    5  A    between atoms: C_22  and  C_24
REMARK    6  A    between atoms: N_28  and  C_29
REMARK                            x       y       z     vdW  Elec       q    Type
REMARK                         _______ _______ _______ _____ _____    ______ ____
ROOT
ATOM      1  C   UNL     1      -1.083  -6.973   0.520  0.00  0.00    +0.077 A 
ATOM      2  C   UNL     1       0.117  -7.524   1.016  0.00  0.00    +0.108 A 
ATOM      3  C   UNL     1       0.254  -8.835   1.447  0.00  0.00    +0.180 A 
ATOM      4  N   UNL     1      -0.751  -9.738   1.416  0.00  0.00    -0.233 NA
ATOM      5  C   UNL     1      -1.908  -9.239   0.934  0.00  0.00    +0.135 A 
ATOM      6  C   UNL     1      -2.130  -7.929   0.502  0.00  0.00    +0.082 A 
ATOM      7 CL   UNL     1      -3.768  -7.543   0.083  0.00  0.00    -0.080 Cl
ATOM      8  N   UNL     1       1.506  -9.093   1.924  0.00  0.00    -0.207 NA
ATOM      9  C   UNL     1       2.169  -7.970   1.777  0.00  0.00    +0.159 A 
ATOM     10  N   UNL     1       1.383  -7.014   1.188  0.00  0.00    -0.334 N 
ATOM     11  H   UNL     1       1.684  -6.090   0.936  0.00  0.00    +0.168 HD
ENDROOT
BRANCH   1  15
ATOM     12  N   UNL     1      -1.989  -2.921  -0.110  0.00  0.00    -0.294 NA
ATOM     13  C   UNL     1      -2.837  -3.999  -0.673  0.00  0.00    +0.103 C 
ATOM     14  C   UNL     1      -1.921  -5.192  -1.040  0.00  0.00    +0.120 C 
ATOM     15  N   UNL     1      -1.196  -5.649   0.163  0.00  0.00    -0.325 N 
ATOM     16  C   UNL     1      -0.482  -4.580   0.885  0.00  0.00    +0.120 C 
ATOM     17  C   UNL     1      -1.427  -3.386   1.163  0.00  0.00    +0.103 C 
BRANCH  12  18
ATOM     18  C   UNL     1      -2.657  -1.626  -0.027  0.00  0.00    +0.143 C 
BRANCH  18  22
ATOM     19  C   UNL     1      -1.980  -0.108  -4.859  0.00  0.00    +0.089 C 
ATOM     20  C   UNL     1      -2.415  -0.475  -3.502  0.00  0.00    +0.135 A 
ATOM     21  C   UNL     1      -1.781  -1.012  -2.413  0.00  0.00    +0.072 A 
ATOM     22  C   UNL     1      -2.788  -1.083  -1.417  0.00  0.00    +0.098 A 
ATOM     23  N   UNL     1      -3.960  -0.631  -1.882  0.00  0.00    -0.082 NA
ATOM     24  O   UNL     1      -3.721  -0.252  -3.194  0.00  0.00    -0.360 OA
ENDBRANCH  18  22
ENDBRANCH  12  18
ENDBRANCH   1  15
BRANCH   9  25
ATOM     25  C   UNL     1       3.524  -7.753   2.167  0.00  0.00    +0.104 A 
ATOM     26  C   UNL     1       4.283  -6.596   2.166  0.00  0.00    +0.052 A 
ATOM     27  C   UNL     1       5.543  -6.979   2.658  0.00  0.00    +0.135 A 
ATOM     28  N   UNL     1       5.597  -8.276   2.956  0.00  0.00    -0.179 NA
ATOM     29  N   UNL     1       4.362  -8.729   2.654  0.00  0.00    -0.264 N 
ATOM     30  C   UNL     1       4.060 -10.132   2.850  0.00  0.00    +0.173 C 
ENDBRANCH   9  25
TORSDOF 4
