REMARK  Name = L166
REMARK  5 active torsions:
REMARK  status: ('A' for Active; 'I' for Inactive)
REMARK    1  A    between atoms: C_3  and  N_4
REMARK    2  A    between atoms: N_7  and  C_8
REMARK    3  A    between atoms: C_9  and  C_13
REMARK    4  A    between atoms: C_19  and  C_22
REMARK    5  A    between atoms: C_22  and  N_23
REMARK                            x       y       z     vdW  Elec       q    Type
REMARK                         _______ _______ _______ _____ _____    ______ ____
ROOT
ATOM      1  C   UNL     1       5.554   1.012   1.692  0.00  0.00    +0.159 A 
ATOM      2  N   UNL     1       6.034   1.543   0.594  0.00  0.00    -0.226 NA
ATOM      3  C   UNL     1       5.398   2.753   0.482  0.00  0.00    +0.090 A 
ATOM      4  C   UNL     1       4.561   2.993   1.569  0.00  0.00    +0.067 A 
ATOM      5  N   UNL     1       4.735   1.888   2.361  0.00  0.00    -0.337 N 
ATOM      6  C   UNL     1       3.789   4.160   1.697  0.00  0.00    +0.032 A 
ATOM      7  C   UNL     1       3.871   5.108   0.657  0.00  0.00    -0.031 A 
ATOM      8  C   UNL     1       4.714   4.865  -0.441  0.00  0.00    +0.007 A 
ATOM      9  C   UNL     1       5.482   3.700  -0.540  0.00  0.00    +0.030 A 
ATOM     10  H   UNL     1       4.321   1.728   3.266  0.00  0.00    +0.167 HD
ENDROOT
BRANCH   1  12
ATOM     11  C   UNL     1       5.084  -1.208   2.841  0.00  0.00    +0.083 A 
ATOM     12  C   UNL     1       5.842  -0.302   2.136  0.00  0.00    +0.122 A 
ATOM     13  N   UNL     1       7.059  -0.898   1.957  0.00  0.00    -0.272 N 
ATOM     14  N   UNL     1       7.180  -2.081   2.595  0.00  0.00    -0.180 NA
ATOM     15  C   UNL     1       5.975  -2.257   3.152  0.00  0.00    +0.158 A 
ATOM     16  H   UNL     1       7.859  -0.527   1.452  0.00  0.00    +0.189 HD
BRANCH  11  20
ATOM     17  N   UNL     1       1.930  -0.916   4.503  0.00  0.00    -0.296 N 
ATOM     18  C   UNL     1       3.257  -1.291   4.401  0.00  0.00    +0.304 C 
ATOM     19  O   UNL     1       3.923  -1.703   5.344  0.00  0.00    -0.252 OA
ATOM     20  N   UNL     1       3.745  -1.034   3.141  0.00  0.00    -0.266 N 
ATOM     21  H   UNL     1       1.377  -0.976   3.658  0.00  0.00    +0.151 HD
ATOM     22  H   UNL     1       3.245  -0.342   2.603  0.00  0.00    +0.156 HD
BRANCH  17  25
ATOM     23  C   UNL     1      -0.136  -0.442   5.929  0.00  0.00    +0.024 C 
ATOM     24  C   UNL     1       1.039   0.214   6.594  0.00  0.00    +0.024 C 
ATOM     25  C   UNL     1       1.240  -1.015   5.750  0.00  0.00    +0.075 C 
ENDBRANCH  17  25
ENDBRANCH  11  20
ENDBRANCH   1  12
BRANCH   7  26
ATOM     26  C   UNL     1       3.139   6.434   0.753  0.00  0.00    +0.119 C 
BRANCH  26  27
ATOM     27  N   UNL     1       1.817   6.571   0.150  0.00  0.00    -0.294 NA
ATOM     28  C   UNL     1       0.720   5.828   0.771  0.00  0.00    +0.113 C 
ATOM     29  C   UNL     1       0.462   4.444   0.157  0.00  0.00    +0.175 C 
ATOM     30  O   UNL     1       0.297   4.517  -1.264  0.00  0.00    -0.377 OA
ATOM     31  C   UNL     1       1.442   5.115  -1.885  0.00  0.00    +0.175 C 
ATOM     32  C   UNL     1       1.734   6.512  -1.313  0.00  0.00    +0.113 C 
ENDBRANCH  26  27
ENDBRANCH   7  26
TORSDOF 5
