REMARK  Name = L67
REMARK  8 active torsions:
REMARK  status: ('A' for Active; 'I' for Inactive)
REMARK    1  A    between atoms: C_1  and  C_2
REMARK    2  A    between atoms: C_10  and  S_17
REMARK    3  A    between atoms: S_17  and  C_18
REMARK    4  A    between atoms: C_21  and  N_24
REMARK    5  A    between atoms: C_25  and  C_27
REMARK    6  A    between atoms: C_27  and  N_28
REMARK    7  A    between atoms: C_31  and  C_33
REMARK    8  A    between atoms: N_35  and  C_36
REMARK                            x       y       z     vdW  Elec       q    Type
REMARK                         _______ _______ _______ _____ _____    ______ ____
ROOT
ATOM      1  C   UNL     1       0.301   4.755   3.691  0.00  0.00    +0.016 A 
ATOM      2  C   UNL     1      -0.096   3.428   3.481  0.00  0.00    +0.017 A 
ATOM      3  C   UNL     1      -0.338   2.570   4.563  0.00  0.00    +0.024 A 
ATOM      4  C   UNL     1      -0.184   3.030   5.869  0.00  0.00    +0.033 A 
ATOM      5  C   UNL     1       0.194   4.355   6.095  0.00  0.00    +0.024 A 
ATOM      6  C   UNL     1       0.453   5.209   5.008  0.00  0.00    +0.017 A 
ENDROOT
BRANCH   4   7
ATOM      7  N   UNL     1      -0.464   2.155   6.936  0.00  0.00    -0.284 N 
ATOM      8  C   UNL     1       0.523   1.339   7.486  0.00  0.00    +0.231 C 
ATOM      9  O   UNL     1       1.661   1.247   7.048  0.00  0.00    -0.274 OA
ATOM     10  H   UNL     1      -1.312   2.327   7.460  0.00  0.00    +0.155 HD
BRANCH   8  11
ATOM     11  C   UNL     1       0.048   0.518   8.707  0.00  0.00    +0.180 C 
BRANCH  11  12
ATOM     12  N   UNL     1       0.716   0.844   9.983  0.00  0.00    -0.293 NA
ATOM     13  C   UNL     1       0.609   2.248  10.383  0.00  0.00    +0.085 C 
ATOM     14  C   UNL     1       1.970   2.848  10.089  0.00  0.00    +0.029 C 
ATOM     15  C   UNL     1       2.925   1.719  10.459  0.00  0.00    +0.090 C 
ATOM     16  C   UNL     1       2.140   0.461  10.070  0.00  0.00    +0.097 C 
BRANCH  15  17
ATOM     17  C   UNL     1       3.301   1.762  11.943  0.00  0.00    +0.218 C 
ATOM     18  O   UNL     1       2.868   2.615  12.715  0.00  0.00    -0.275 OA
ATOM     19  N   UNL     1       4.217   0.810  12.342  0.00  0.00    -0.312 N 
ATOM     20  H   UNL     1       4.477   0.073  11.700  0.00  0.00    +0.149 HD
BRANCH  19  21
ATOM     21  C   UNL     1       4.654   0.721  13.723  0.00  0.00    +0.073 C 
ATOM     22  C   UNL     1       3.734  -0.132  14.593  0.00  0.00    +0.022 C 
ATOM     23  C   UNL     1       4.584  -0.439  15.820  0.00  0.00    +0.002 C 
ATOM     24  C   UNL     1       6.034  -0.445  15.332  0.00  0.00    +0.002 C 
ATOM     25  C   UNL     1       5.999   0.020  13.878  0.00  0.00    +0.022 C 
ENDBRANCH  19  21
ENDBRANCH  15  17
ENDBRANCH  11  12
ENDBRANCH   8  11
ENDBRANCH   4   7
BRANCH   1  26
ATOM     26  S   UNL     1       0.735   5.769   2.286  0.00  0.00    -0.048 S 
BRANCH  26  36
ATOM     27  C   UNL     1      -4.841   3.208   3.937  0.00  0.00    +0.065 C 
ATOM     28  C   UNL     1      -4.826   4.662   3.669  0.00  0.00    +0.035 A 
ATOM     29  C   UNL     1      -3.896   5.452   3.039  0.00  0.00    +0.068 A 
ATOM     30  C   UNL     1      -4.392   6.774   3.127  0.00  0.00    +0.146 A 
ATOM     31  N   UNL     1      -5.598   6.791   3.699  0.00  0.00    -0.158 NA
ATOM     32  N   UNL     1      -5.828   5.510   4.036  0.00  0.00    -0.280 N 
ATOM     33  N   UNL     1      -3.785   7.908   2.704  0.00  0.00    -0.281 N 
ATOM     34  C   UNL     1      -2.412   8.044   2.665  0.00  0.00    +0.153 A 
ATOM     35  N   UNL     1      -1.604   7.038   2.516  0.00  0.00    -0.203 NA
ATOM     36  C   UNL     1      -0.246   7.216   2.505  0.00  0.00    +0.214 A 
ATOM     37  N   UNL     1       0.377   8.344   2.603  0.00  0.00    -0.139 NA
ATOM     38  N   UNL     1      -0.436   9.398   2.750  0.00  0.00    -0.234 N 
ATOM     39  C   UNL     1      -1.797   9.335   2.798  0.00  0.00    +0.105 A 
ATOM     40  C   UNL     1      -2.285  10.608   3.010  0.00  0.00    +0.033 A 
ATOM     41  C   UNL     1      -1.165  11.475   3.089  0.00  0.00    +0.022 A 
ATOM     42  C   UNL     1      -0.040  10.699   2.909  0.00  0.00    +0.113 A 
ATOM     43  H   UNL     1      -6.693   5.289   4.519  0.00  0.00    +0.189 HD
ATOM     44  H   UNL     1      -4.317   8.749   2.875  0.00  0.00    +0.155 HD
ENDBRANCH  26  36
ENDBRANCH   1  26
TORSDOF 7
