REMARK  Name = L173
REMARK  6 active torsions:
REMARK  status: ('A' for Active; 'I' for Inactive)
REMARK    1  A    between atoms: C_1  and  C_2
REMARK    2  A    between atoms: C_2  and  C_3
REMARK    3  A    between atoms: C_2  and  C_27
REMARK    4  A    between atoms: C_5  and  N_9
REMARK    5  A    between atoms: N_16  and  C_17
REMARK    6  A    between atoms: C_21  and  C_23
REMARK                            x       y       z     vdW  Elec       q    Type
REMARK                         _______ _______ _______ _____ _____    ______ ____
ROOT
ATOM      1  N   UNL     1       5.372   1.515  -3.875  0.00  0.00    -0.284 N 
ATOM      2  C   UNL     1       6.076   2.367  -4.726  0.00  0.00    +0.221 A 
ATOM      3  N   UNL     1       6.116   2.003  -6.015  0.00  0.00    -0.223 NA
ATOM      4  C   UNL     1       6.699   2.864  -6.868  0.00  0.00    +0.118 A 
ATOM      5  C   UNL     1       7.250   4.063  -6.486  0.00  0.00    +0.063 A 
ATOM      6  C   UNL     1       7.218   4.338  -5.140  0.00  0.00    +0.128 A 
ATOM      7  N   UNL     1       6.627   3.498  -4.276  0.00  0.00    -0.199 NA
ATOM      8  N   UNL     1       7.855   5.506  -4.657  0.00  0.00    -0.299 N 
ATOM      9  H   UNL     1       4.981   0.763  -4.423  0.00  0.00    +0.155 HD
ATOM     10  H   UNL     1       7.493   6.334  -5.114  0.00  0.00    +0.154 HD
ENDROOT
BRANCH   1  13
ATOM     11  C   UNL     1       3.116   1.089  -0.945  0.00  0.00    -0.034 A 
ATOM     12  C   UNL     1       3.765   0.895  -2.180  0.00  0.00    +0.027 A 
ATOM     13  C   UNL     1       4.787   1.750  -2.621  0.00  0.00    +0.034 A 
ATOM     14  C   UNL     1       5.164   2.796  -1.772  0.00  0.00    +0.023 A 
ATOM     15  C   UNL     1       4.531   3.006  -0.546  0.00  0.00    +0.002 A 
ATOM     16  C   UNL     1       3.509   2.158  -0.133  0.00  0.00    +0.004 A 
BRANCH  11  18
ATOM     17  C   UNL     1       2.493  -1.266  -0.332  0.00  0.00    +0.022 C 
ATOM     18  C   UNL     1       1.991   0.170  -0.497  0.00  0.00    +0.102 C 
BRANCH  18  19
ATOM     19  C   UNL     1       0.784   0.233  -1.438  0.00  0.00    +0.218 C 
ATOM     20  O   UNL     1       0.281  -0.739  -1.987  0.00  0.00    -0.275 OA
ATOM     21  N   UNL     1       0.231   1.474  -1.603  0.00  0.00    -0.329 N 
ATOM     22  H   UNL     1       0.774   2.307  -1.418  0.00  0.00    +0.145 HD
ATOM     23  H   UNL     1      -0.510   1.546  -2.289  0.00  0.00    +0.145 HD
ENDBRANCH  18  19
ENDBRANCH  11  18
ENDBRANCH   1  13
BRANCH   8  24
ATOM     24  C   UNL     1       8.241   5.718  -3.315  0.00  0.00    +0.033 A 
ATOM     25  C   UNL     1       8.140   6.982  -2.726  0.00  0.00    +0.023 A 
ATOM     26  C   UNL     1       8.514   7.178  -1.392  0.00  0.00    +0.002 A 
ATOM     27  C   UNL     1       9.003   6.114  -0.632  0.00  0.00    +0.012 A 
ATOM     28  C   UNL     1       9.134   4.844  -1.205  0.00  0.00    +0.057 A 
ATOM     29  C   UNL     1       8.766   4.668  -2.545  0.00  0.00    +0.035 A 
BRANCH  28  30
ATOM     30  C   UNL     1       9.648   3.662  -0.426  0.00  0.00    +0.417 C 
ATOM     31  F   UNL     1       9.944   3.954   0.872  0.00  0.00    -0.166 F 
ATOM     32  F   UNL     1       8.755   2.635  -0.380  0.00  0.00    -0.166 F 
ATOM     33  F   UNL     1      10.790   3.141  -0.958  0.00  0.00    -0.166 F 
ENDBRANCH  28  30
ENDBRANCH   8  24
TORSDOF 5
