REMARK  Name = L23
REMARK  3 active torsions:
REMARK  status: ('A' for Active; 'I' for Inactive)
REMARK    1  A    between atoms: C_4  and  C_7
REMARK    2  A    between atoms: N_9  and  C_10
REMARK    3  A    between atoms: N_16  and  C_17
REMARK                            x       y       z     vdW  Elec       q    Type
REMARK                         _______ _______ _______ _____ _____    ______ ____
ROOT
ATOM      1  C   UNL     1      -5.024  -0.349  -0.360  0.00  0.00    +0.052 A 
ATOM      2  C   UNL     1      -6.056  -1.089   0.191  0.00  0.00    +0.136 A 
ATOM      3  N   UNL     1      -7.353  -0.714   0.179  0.00  0.00    -0.238 NA
ATOM      4  C   UNL     1      -7.702   0.440  -0.406  0.00  0.00    +0.123 A 
ATOM      5  C   UNL     1      -6.736   1.215  -1.047  0.00  0.00    +0.045 A 
ATOM      6  C   UNL     1      -5.387   0.826  -1.013  0.00  0.00    +0.028 A 
ATOM      7  N   UNL     1      -9.008   0.942  -0.233  0.00  0.00    -0.299 N 
ATOM      8  H   UNL     1      -9.237   1.655  -0.916  0.00  0.00    +0.154 HD
ENDROOT
BRANCH   7   9
ATOM      9  C   UNL     1     -10.160   0.301   0.296  0.00  0.00    +0.045 A 
ATOM     10  C   UNL     1     -11.402   0.948   0.254  0.00  0.00    +0.046 A 
ATOM     11  C   UNL     1     -11.669   2.286  -0.280  0.00  0.00    -0.000 A 
ATOM     12  C   UNL     1     -11.315   3.502   0.308  0.00  0.00    +0.009 A 
ATOM     13  C   UNL     1     -11.698   4.699  -0.313  0.00  0.00    +0.001 A 
ATOM     14  C   UNL     1     -12.350   4.689  -1.553  0.00  0.00    +0.001 A 
ATOM     15  C   UNL     1     -12.760   3.479  -2.111  0.00  0.00    +0.014 A 
ATOM     16  C   UNL     1     -12.511   2.319  -1.396  0.00  0.00    +0.047 A 
ATOM     17  C   UNL     1     -13.328   1.108  -1.605  0.00  0.00    +0.258 A 
ATOM     18  O   UNL     1     -13.715   0.784  -2.721  0.00  0.00    -0.267 OA
ATOM     19  N   UNL     1     -13.641   0.415  -0.426  0.00  0.00    -0.306 N 
ATOM     20  C   UNL     1     -12.532   0.135   0.425  0.00  0.00    +0.143 A 
ATOM     21  N   UNL     1     -12.539  -1.064   1.026  0.00  0.00    -0.237 NA
ATOM     22  C   UNL     1     -11.328  -1.600   1.238  0.00  0.00    +0.115 A 
ATOM     23  C   UNL     1     -10.145  -0.995   0.836  0.00  0.00    +0.044 A 
ATOM     24  H   UNL     1     -14.295   0.954   0.130  0.00  0.00    +0.170 HD
ENDBRANCH   7   9
BRANCH   1  27
ATOM     25  C   UNL     1      -3.206  -1.933   0.218  0.00  0.00    +0.248 C 
ATOM     26  O   UNL     1      -3.911  -2.903   0.464  0.00  0.00    -0.270 OA
ATOM     27  N   UNL     1      -3.660  -0.701  -0.247  0.00  0.00    -0.280 N 
ATOM     28  H   UNL     1      -2.977  -0.037  -0.582  0.00  0.00    +0.155 HD
BRANCH  25  32
ATOM     29  C   UNL     1       0.958  -2.581   0.838  0.00  0.00    +0.000 A 
ATOM     30  C   UNL     1       0.152  -3.605   0.347  0.00  0.00    +0.001 A 
ATOM     31  C   UNL     1      -1.205  -3.358   0.123  0.00  0.00    +0.013 A 
ATOM     32  C   UNL     1      -1.748  -2.089   0.379  0.00  0.00    +0.037 A 
ATOM     33  C   UNL     1      -0.927  -1.065   0.871  0.00  0.00    +0.013 A 
ATOM     34  C   UNL     1       0.433  -1.321   1.096  0.00  0.00    +0.001 A 
ENDBRANCH  25  32
ENDBRANCH   1  27
TORSDOF 3
