REMARK  Name = L66
REMARK  8 active torsions:
REMARK  status: ('A' for Active; 'I' for Inactive)
REMARK    1  A    between atoms: C_1  and  C_2
REMARK    2  A    between atoms: C_10  and  S_17
REMARK    3  A    between atoms: S_17  and  C_18
REMARK    4  A    between atoms: C_21  and  N_24
REMARK    5  A    between atoms: C_25  and  C_27
REMARK    6  A    between atoms: C_27  and  N_28
REMARK    7  A    between atoms: C_31  and  C_33
REMARK    8  A    between atoms: N_35  and  C_36
REMARK                            x       y       z     vdW  Elec       q    Type
REMARK                         _______ _______ _______ _____ _____    ______ ____
ROOT
ATOM      1  C   UNL     1       0.303   4.786   3.704  0.00  0.00    +0.016 A 
ATOM      2  C   UNL     1      -0.964   4.735   4.301  0.00  0.00    +0.017 A 
ATOM      3  C   UNL     1      -1.223   3.867   5.371  0.00  0.00    +0.024 A 
ATOM      4  C   UNL     1      -0.220   3.027   5.846  0.00  0.00    +0.033 A 
ATOM      5  C   UNL     1       1.050   3.070   5.267  0.00  0.00    +0.024 A 
ATOM      6  C   UNL     1       1.305   3.937   4.190  0.00  0.00    +0.017 A 
ENDROOT
BRANCH   4   7
ATOM      7  N   UNL     1      -0.487   2.178   6.936  0.00  0.00    -0.284 N 
ATOM      8  C   UNL     1      -0.992   0.892   6.771  0.00  0.00    +0.231 C 
ATOM      9  O   UNL     1      -1.281   0.412   5.671  0.00  0.00    -0.274 OA
ATOM     10  H   UNL     1      -0.189   2.488   7.852  0.00  0.00    +0.155 HD
BRANCH   8  11
ATOM     11  C   UNL     1      -1.169   0.100   8.078  0.00  0.00    +0.180 C 
BRANCH  11  12
ATOM     12  N   UNL     1      -0.318  -1.101   8.202  0.00  0.00    -0.293 NA
ATOM     13  C   UNL     1       1.115  -0.825   8.070  0.00  0.00    +0.085 C 
ATOM     14  C   UNL     1       1.488  -1.313   6.682  0.00  0.00    +0.029 C 
ATOM     15  C   UNL     1       0.642  -2.571   6.533  0.00  0.00    +0.090 C 
ATOM     16  C   UNL     1      -0.646  -2.210   7.282  0.00  0.00    +0.097 C 
BRANCH  15  17
ATOM     17  C   UNL     1       1.357  -3.787   7.127  0.00  0.00    +0.218 C 
ATOM     18  O   UNL     1       2.457  -3.717   7.670  0.00  0.00    -0.275 OA
ATOM     19  N   UNL     1       0.695  -4.989   6.977  0.00  0.00    -0.312 N 
ATOM     20  H   UNL     1      -0.162  -5.003   6.439  0.00  0.00    +0.149 HD
BRANCH  19  21
ATOM     21  C   UNL     1       1.258  -6.237   7.527  0.00  0.00    +0.073 C 
ATOM     22  C   UNL     1       0.374  -7.491   7.331  0.00  0.00    +0.022 C 
ATOM     23  C   UNL     1       1.672  -8.274   7.049  0.00  0.00    +0.004 C 
ATOM     24  C   UNL     1       2.303  -6.934   6.622  0.00  0.00    +0.022 C 
ENDBRANCH  19  21
ENDBRANCH  15  17
ENDBRANCH  11  12
ENDBRANCH   8  11
ENDBRANCH   4   7
BRANCH   1  25
ATOM     25  S   UNL     1       0.550   5.823   2.271  0.00  0.00    -0.048 S 
BRANCH  25  35
ATOM     26  C   UNL     1      -0.854   7.374   8.254  0.00  0.00    +0.065 C 
ATOM     27  C   UNL     1       0.317   8.043   7.658  0.00  0.00    +0.035 A 
ATOM     28  C   UNL     1       0.719   8.158   6.350  0.00  0.00    +0.068 A 
ATOM     29  C   UNL     1       1.938   8.872   6.377  0.00  0.00    +0.146 A 
ATOM     30  N   UNL     1       2.241   9.241   7.624  0.00  0.00    -0.158 NA
ATOM     31  N   UNL     1       1.261   8.713   8.380  0.00  0.00    -0.280 N 
ATOM     32  N   UNL     1       2.731   9.171   5.322  0.00  0.00    -0.281 N 
ATOM     33  C   UNL     1       2.806   8.365   4.203  0.00  0.00    +0.153 A 
ATOM     34  N   UNL     1       1.826   7.610   3.807  0.00  0.00    -0.203 NA
ATOM     35  C   UNL     1       1.957   6.806   2.707  0.00  0.00    +0.214 A 
ATOM     36  N   UNL     1       2.990   6.717   1.936  0.00  0.00    -0.139 NA
ATOM     37  N   UNL     1       4.008   7.501   2.320  0.00  0.00    -0.234 N 
ATOM     38  C   UNL     1       4.002   8.319   3.410  0.00  0.00    +0.105 A 
ATOM     39  C   UNL     1       5.242   8.917   3.515  0.00  0.00    +0.033 A 
ATOM     40  C   UNL     1       6.025   8.439   2.432  0.00  0.00    +0.022 A 
ATOM     41  C   UNL     1       5.228   7.580   1.705  0.00  0.00    +0.113 A 
ATOM     42  H   UNL     1       1.301   8.851   9.384  0.00  0.00    +0.189 HD
ATOM     43  H   UNL     1       3.565   9.690   5.563  0.00  0.00    +0.155 HD
ENDBRANCH  25  35
ENDBRANCH   1  25
TORSDOF 7
