REMARK  Name = L101
REMARK  6 active torsions:
REMARK  status: ('A' for Active; 'I' for Inactive)
REMARK    1  A    between atoms: C_1  and  O_2
REMARK    2  A    between atoms: O_2  and  C_3
REMARK    3  A    between atoms: C_6  and  C_9
REMARK    4  A    between atoms: C_15  and  N_18
REMARK    5  A    between atoms: N_21  and  C_24
REMARK    6  A    between atoms: C_24  and  C_25
REMARK                            x       y       z     vdW  Elec       q    Type
REMARK                         _______ _______ _______ _____ _____    ______ ____
ROOT
ATOM      1  C   UNL     1       4.938   4.305  -2.750  0.00  0.00    +0.141 A 
ATOM      2  N   UNL     1       5.411   5.438  -2.275  0.00  0.00    -0.208 NA
ATOM      3  C   UNL     1       5.947   6.087  -3.352  0.00  0.00    +0.180 A 
ATOM      4  N   UNL     1       6.578   7.275  -3.286  0.00  0.00    -0.233 NA
ATOM      5  C   UNL     1       7.077   7.685  -4.469  0.00  0.00    +0.130 A 
ATOM      6  C   UNL     1       6.982   7.005  -5.689  0.00  0.00    +0.059 A 
ATOM      7  C   UNL     1       6.291   5.769  -5.785  0.00  0.00    +0.073 A 
ATOM      8  C   UNL     1       5.788   5.365  -4.529  0.00  0.00    +0.108 A 
ATOM      9  N   UNL     1       5.056   4.281  -4.116  0.00  0.00    -0.335 N 
ATOM     10 BR   UNL     1       7.986   7.784  -7.113  0.00  0.00    -0.047 Br
ATOM     11  H   UNL     1       4.693   3.555  -4.712  0.00  0.00    +0.167 HD
ENDROOT
BRANCH   1  15
ATOM     12  C   UNL     1       3.200   1.122  -0.469  0.00  0.00    +0.120 A 
ATOM     13  C   UNL     1       3.068   2.450  -0.059  0.00  0.00    +0.046 A 
ATOM     14  C   UNL     1       3.635   3.486  -0.806  0.00  0.00    +0.015 A 
ATOM     15  C   UNL     1       4.343   3.210  -1.979  0.00  0.00    +0.018 A 
ATOM     16  C   UNL     1       4.497   1.871  -2.372  0.00  0.00    +0.015 A 
ATOM     17  C   UNL     1       3.926   0.835  -1.625  0.00  0.00    +0.046 A 
BRANCH  12  19
ATOM     18  C   UNL     1       2.301  -1.055  -0.243  0.00  0.00    +0.277 C 
ATOM     19  O   UNL     1       2.621   0.196   0.353  0.00  0.00    -0.495 OA
ENDBRANCH  12  19
ENDBRANCH   1  15
BRANCH   7  20
ATOM     20  N   UNL     1       6.168   4.992  -6.919  0.00  0.00    -0.325 N 
ATOM     21  C   UNL     1       5.815   5.536  -8.242  0.00  0.00    +0.120 C 
ATOM     22  C   UNL     1       6.730   4.902  -9.329  0.00  0.00    +0.103 C 
ATOM     23  N   UNL     1       6.728   3.411  -9.354  0.00  0.00    -0.294 NA
ATOM     24  C   UNL     1       7.061   2.947  -7.984  0.00  0.00    +0.103 C 
ATOM     25  C   UNL     1       6.167   3.519  -6.861  0.00  0.00    +0.120 C 
BRANCH  23  26
ATOM     26  C   UNL     1       5.421   2.918  -9.830  0.00  0.00    +0.140 C 
BRANCH  26  27
ATOM     27  C   UNL     1       5.351   1.418  -9.855  0.00  0.00    +0.062 A 
ATOM     28  C   UNL     1       5.695   0.593 -10.911  0.00  0.00    +0.071 A 
ATOM     29  S   UNL     1       5.419  -1.046 -10.497  0.00  0.00    -0.084 S 
ATOM     30  C   UNL     1       4.867  -0.545  -8.955  0.00  0.00    +0.156 A 
ATOM     31  N   UNL     1       4.863   0.751  -8.731  0.00  0.00    -0.251 NA
ENDBRANCH  26  27
ENDBRANCH  23  26
ENDBRANCH   7  20
TORSDOF 5
