REMARK  Name = L100
REMARK  7 active torsions:
REMARK  status: ('A' for Active; 'I' for Inactive)
REMARK    1  A    between atoms: C_1  and  C_2
REMARK    2  A    between atoms: C_4  and  C_7
REMARK    3  A    between atoms: C_7  and  N_8
REMARK    4  A    between atoms: N_11  and  C_14
REMARK    5  A    between atoms: C_22  and  C_24
REMARK    6  A    between atoms: C_27  and  N_30
REMARK    7  A    between atoms: N_33  and  C_36
REMARK                            x       y       z     vdW  Elec       q    Type
REMARK                         _______ _______ _______ _____ _____    ______ ____
ROOT
ATOM      1  C   UNL     1      -1.014  -6.998   0.538  0.00  0.00    +0.077 A 
ATOM      2  C   UNL     1      -0.649  -7.994  -0.388  0.00  0.00    +0.108 A 
ATOM      3  C   UNL     1      -0.560  -9.350  -0.078  0.00  0.00    +0.180 A 
ATOM      4  N   UNL     1      -0.871  -9.858   1.131  0.00  0.00    -0.233 NA
ATOM      5  C   UNL     1      -1.244  -8.925   2.026  0.00  0.00    +0.135 A 
ATOM      6  C   UNL     1      -1.322  -7.547   1.806  0.00  0.00    +0.082 A 
ATOM      7 CL   UNL     1      -1.666  -6.578   3.203  0.00  0.00    -0.080 Cl
ATOM      8  N   UNL     1      -0.099 -10.082  -1.137  0.00  0.00    -0.208 NA
ATOM      9  C   UNL     1       0.059  -9.222  -2.123  0.00  0.00    +0.141 A 
ATOM     10  N   UNL     1      -0.315  -7.965  -1.714  0.00  0.00    -0.335 N 
ATOM     11  H   UNL     1      -0.302  -7.142  -2.293  0.00  0.00    +0.167 HD
ENDROOT
BRANCH   9  12
ATOM     12  C   UNL     1       0.577  -9.523  -3.458  0.00  0.00    +0.020 A 
ATOM     13  C   UNL     1       0.294  -8.725  -4.568  0.00  0.00    +0.051 A 
ATOM     14  C   UNL     1       0.806  -9.058  -5.824  0.00  0.00    +0.145 A 
ATOM     15  C   UNL     1       1.612 -10.190  -6.035  0.00  0.00    +0.065 A 
ATOM     16  C   UNL     1       1.888 -10.972  -4.903  0.00  0.00    +0.027 A 
ATOM     17  C   UNL     1       1.383 -10.649  -3.639  0.00  0.00    +0.013 A 
ATOM     18  F   UNL     1       0.469  -8.260  -6.851  0.00  0.00    -0.204 F 
BRANCH  15  19
ATOM     19  N   UNL     1       2.172 -10.523  -7.253  0.00  0.00    -0.325 N 
ATOM     20  C   UNL     1       2.460  -9.516  -8.281  0.00  0.00    +0.120 C 
ATOM     21  C   UNL     1       3.802  -9.870  -8.973  0.00  0.00    +0.103 C 
ATOM     22  N   UNL     1       3.916 -11.253  -9.494  0.00  0.00    -0.302 NA
ATOM     23  C   UNL     1       3.524 -12.210  -8.432  0.00  0.00    +0.103 C 
ATOM     24  C   UNL     1       2.175 -11.911  -7.737  0.00  0.00    +0.120 C 
ATOM     25  C   UNL     1       3.109 -11.433 -10.699  0.00  0.00    +0.105 C 
ENDBRANCH  15  19
ENDBRANCH   9  12
BRANCH   1  29
ATOM     26  N   UNL     1      -0.689  -2.812  -0.017  0.00  0.00    -0.294 NA
ATOM     27  C   UNL     1      -1.510  -3.393   1.075  0.00  0.00    +0.103 C 
ATOM     28  C   UNL     1      -2.098  -4.739   0.596  0.00  0.00    +0.120 C 
ATOM     29  N   UNL     1      -0.992  -5.650   0.235  0.00  0.00    -0.325 N 
ATOM     30  C   UNL     1      -0.048  -5.078  -0.741  0.00  0.00    +0.120 C 
ATOM     31  C   UNL     1       0.457  -3.699  -0.263  0.00  0.00    +0.103 C 
BRANCH  26  32
ATOM     32  C   UNL     1      -0.297  -1.424   0.228  0.00  0.00    +0.143 C 
BRANCH  32  36
ATOM     33  C   UNL     1      -4.611   0.859  -1.285  0.00  0.00    +0.089 C 
ATOM     34  C   UNL     1      -3.376   0.360  -0.659  0.00  0.00    +0.135 A 
ATOM     35  C   UNL     1      -2.447  -0.585  -1.004  0.00  0.00    +0.072 A 
ATOM     36  C   UNL     1      -1.505  -0.557   0.056  0.00  0.00    +0.098 A 
ATOM     37  N   UNL     1      -1.846   0.351   0.982  0.00  0.00    -0.082 NA
ATOM     38  O   UNL     1      -3.025   0.920   0.529  0.00  0.00    -0.360 OA
ENDBRANCH  32  36
ENDBRANCH  26  32
ENDBRANCH   1  29
TORSDOF 5
