REMARK  Name = L144
REMARK  7 active torsions:
REMARK  status: ('A' for Active; 'I' for Inactive)
REMARK    1  A    between atoms: C_1  and  C_2
REMARK    2  A    between atoms: C_4  and  C_7
REMARK    3  A    between atoms: C_7  and  N_8
REMARK    4  A    between atoms: N_11  and  C_14
REMARK    5  A    between atoms: C_22  and  C_24
REMARK    6  A    between atoms: C_25  and  C_30
REMARK    7  A    between atoms: C_27  and  C_29
REMARK                            x       y       z     vdW  Elec       q    Type
REMARK                         _______ _______ _______ _____ _____    ______ ____
ROOT
ATOM      1  C   UNL     1      -0.999  -7.001   0.456  0.00  0.00    +0.073 A 
ATOM      2  C   UNL     1      -0.740  -7.416   1.784  0.00  0.00    +0.108 A 
ATOM      3  C   UNL     1      -0.518  -8.734   2.163  0.00  0.00    +0.180 A 
ATOM      4  N   UNL     1      -0.604  -9.778   1.315  0.00  0.00    -0.233 NA
ATOM      5  C   UNL     1      -0.890  -9.418   0.048  0.00  0.00    +0.130 A 
ATOM      6  C   UNL     1      -1.069  -8.114  -0.427  0.00  0.00    +0.059 A 
ATOM      7 BR   UNL     1      -1.260  -8.014  -2.325  0.00  0.00    -0.047 Br
ATOM      8  N   UNL     1      -0.187  -8.843   3.482  0.00  0.00    -0.207 NA
ATOM      9  C   UNL     1      -0.252  -7.610   3.949  0.00  0.00    +0.163 A 
ATOM     10  N   UNL     1      -0.675  -6.749   2.989  0.00  0.00    -0.334 N 
ATOM     11  H   UNL     1      -0.834  -5.769   3.157  0.00  0.00    +0.168 HD
ENDROOT
BRANCH   9  12
ATOM     12  C   UNL     1       0.079  -7.197   5.332  0.00  0.00    +0.147 A 
ATOM     13  C   UNL     1       0.607  -7.988   6.327  0.00  0.00    +0.133 A 
ATOM     14  O   UNL     1       0.731  -7.206   7.444  0.00  0.00    -0.444 OA
ATOM     15  C   UNL     1       0.282  -5.977   7.046  0.00  0.00    +0.193 A 
ATOM     16  N   UNL     1      -0.097  -5.909   5.785  0.00  0.00    -0.210 NA
ATOM     17  C   UNL     1       0.267  -4.917   8.075  0.00  0.00    +0.109 C 
ATOM     18  C   UNL     1       1.055  -9.387   6.444  0.00  0.00    +0.088 C 
ENDBRANCH   9  12
BRANCH   1  22
ATOM     19  N   UNL     1      -1.978  -2.938  -0.099  0.00  0.00    -0.294 NA
ATOM     20  C   UNL     1      -2.859  -3.994  -0.629  0.00  0.00    +0.103 C 
ATOM     21  C   UNL     1      -2.011  -5.227  -1.002  0.00  0.00    +0.120 C 
ATOM     22  N   UNL     1      -1.197  -5.672   0.149  0.00  0.00    -0.325 N 
ATOM     23  C   UNL     1      -0.423  -4.577   0.780  0.00  0.00    +0.120 C 
ATOM     24  C   UNL     1      -1.375  -3.414   1.151  0.00  0.00    +0.103 C 
BRANCH  19  25
ATOM     25  C   UNL     1      -2.602  -1.625  -0.030  0.00  0.00    +0.143 C 
BRANCH  25  29
ATOM     26  C   UNL     1      -2.084  -0.075  -4.869  0.00  0.00    +0.089 C 
ATOM     27  C   UNL     1      -2.494  -0.509  -3.524  0.00  0.00    +0.135 A 
ATOM     28  C   UNL     1      -1.827  -1.069  -2.467  0.00  0.00    +0.072 A 
ATOM     29  C   UNL     1      -2.796  -1.127  -1.432  0.00  0.00    +0.098 A 
ATOM     30  N   UNL     1      -3.991  -0.703  -1.864  0.00  0.00    -0.082 NA
ATOM     31  O   UNL     1      -3.795  -0.313  -3.181  0.00  0.00    -0.360 OA
ENDBRANCH  25  29
ENDBRANCH  19  25
ENDBRANCH   1  22
TORSDOF 4
