REMARK  Name = L183
REMARK  8 active torsions:
REMARK  status: ('A' for Active; 'I' for Inactive)
REMARK    1  A    between atoms: C_3  and  C_25
REMARK    2  A    between atoms: C_5  and  N_7
REMARK    3  A    between atoms: N_14  and  C_15
REMARK    4  A    between atoms: C_19  and  C_21
REMARK    5  A    between atoms: C_25  and  C_26
REMARK    6  A    between atoms: C_26  and  C_27
REMARK    7  A    between atoms: C_27  and  C_28
REMARK    8  A    between atoms: C_28  and  C_29
REMARK                            x       y       z     vdW  Elec       q    Type
REMARK                         _______ _______ _______ _____ _____    ______ ____
ROOT
ATOM      1  N   UNL     1      -1.673  -2.244   0.052  0.00  0.00    -0.284 N 
ATOM      2  C   UNL     1      -1.464  -3.528  -0.453  0.00  0.00    +0.221 A 
ATOM      3  N   UNL     1      -2.556  -4.195  -0.848  0.00  0.00    -0.223 NA
ATOM      4  C   UNL     1      -2.349  -5.373  -1.461  0.00  0.00    +0.118 A 
ATOM      5  C   UNL     1      -1.101  -5.908  -1.688  0.00  0.00    +0.063 A 
ATOM      6  C   UNL     1      -0.038  -5.191  -1.197  0.00  0.00    +0.128 A 
ATOM      7  N   UNL     1      -0.228  -4.017  -0.585  0.00  0.00    -0.199 NA
ATOM      8  N   UNL     1       1.271  -5.715  -1.303  0.00  0.00    -0.299 N 
ATOM      9  H   UNL     1      -2.652  -2.025  -0.067  0.00  0.00    +0.155 HD
ATOM     10  H   UNL     1       1.499  -5.949  -2.261  0.00  0.00    +0.154 HD
ENDROOT
BRANCH   1  15
ATOM     11  C   UNL     1       1.431  -0.144   0.013  0.00  0.00    +0.002 A 
ATOM     12  C   UNL     1       0.877   1.129   0.052  0.00  0.00    +0.004 A 
ATOM     13  C   UNL     1      -0.510   1.286   0.128  0.00  0.00    -0.046 A 
ATOM     14  C   UNL     1      -1.332   0.146   0.100  0.00  0.00    +0.027 A 
ATOM     15  C   UNL     1      -0.794  -1.146   0.046  0.00  0.00    +0.034 A 
ATOM     16  C   UNL     1       0.601  -1.266   0.038  0.00  0.00    +0.023 A 
BRANCH  13  17
ATOM     17  C   UNL     1      -1.106   2.661   0.299  0.00  0.00    +0.035 C 
BRANCH  17  18
ATOM     18  C   UNL     1      -1.963   2.786   1.567  0.00  0.00    +0.005 C 
BRANCH  18  19
ATOM     19  C   UNL     1      -1.176   2.476   2.845  0.00  0.00    +0.009 C 
BRANCH  19  20
ATOM     20  C   UNL     1      -2.059   2.596   4.082  0.00  0.00    +0.095 C 
BRANCH  20  21
ATOM     21  C   UNL     1      -1.300   2.277   5.350  0.00  0.00    +0.210 C 
ATOM     22  O   UNL     1      -1.136   3.089   6.256  0.00  0.00    -0.276 OA
ATOM     23  N   UNL     1      -0.822   1.007   5.446  0.00  0.00    -0.329 N 
ATOM     24  H   UNL     1      -0.876   0.331   4.695  0.00  0.00    +0.145 HD
ATOM     25  H   UNL     1      -0.282   0.766   6.269  0.00  0.00    +0.145 HD
ENDBRANCH  20  21
ENDBRANCH  19  20
ENDBRANCH  18  19
ENDBRANCH  17  18
ENDBRANCH  13  17
ENDBRANCH   1  15
BRANCH   8  26
ATOM     26  C   UNL     1       2.380  -5.283  -0.540  0.00  0.00    +0.033 A 
ATOM     27  C   UNL     1       3.654  -5.186  -1.109  0.00  0.00    +0.023 A 
ATOM     28  C   UNL     1       4.747  -4.767  -0.342  0.00  0.00    +0.002 A 
ATOM     29  C   UNL     1       4.582  -4.446   1.006  0.00  0.00    +0.012 A 
ATOM     30  C   UNL     1       3.320  -4.540   1.602  0.00  0.00    +0.057 A 
ATOM     31  C   UNL     1       2.236  -4.966   0.820  0.00  0.00    +0.035 A 
BRANCH  30  32
ATOM     32  C   UNL     1       3.093  -4.201   3.052  0.00  0.00    +0.417 C 
ATOM     33  F   UNL     1       4.224  -3.805   3.701  0.00  0.00    -0.166 F 
ATOM     34  F   UNL     1       2.196  -3.190   3.224  0.00  0.00    -0.166 F 
ATOM     35  F   UNL     1       2.608  -5.255   3.766  0.00  0.00    -0.166 F 
ENDBRANCH  30  32
ENDBRANCH   8  26
TORSDOF 8
