REMARK  Name = L119
REMARK  6 active torsions:
REMARK  status: ('A' for Active; 'I' for Inactive)
REMARK    1  A    between atoms: C_1  and  C_2
REMARK    2  A    between atoms: C_4  and  C_7
REMARK    3  A    between atoms: C_7  and  N_8
REMARK    4  A    between atoms: N_11  and  C_14
REMARK    5  A    between atoms: C_22  and  C_24
REMARK    6  A    between atoms: N_26  and  C_29
REMARK                            x       y       z     vdW  Elec       q    Type
REMARK                         _______ _______ _______ _____ _____    ______ ____
ROOT
ATOM      1  C   UNL     1      -1.083  -7.003   0.540  0.00  0.00    +0.077 A 
ATOM      2  C   UNL     1       0.127  -7.552   1.014  0.00  0.00    +0.108 A 
ATOM      3  C   UNL     1       0.279  -8.892   1.364  0.00  0.00    +0.180 A 
ATOM      4  N   UNL     1      -0.707  -9.806   1.277  0.00  0.00    -0.233 NA
ATOM      5  C   UNL     1      -1.879  -9.299   0.845  0.00  0.00    +0.135 A 
ATOM      6  C   UNL     1      -2.119  -7.972   0.487  0.00  0.00    +0.082 A 
ATOM      7 CL   UNL     1      -3.771  -7.575   0.124  0.00  0.00    -0.080 Cl
ATOM      8  N   UNL     1       1.534  -9.170   1.825  0.00  0.00    -0.207 NA
ATOM      9  C   UNL     1       2.171  -8.021   1.779  0.00  0.00    +0.161 A 
ATOM     10  N   UNL     1       1.381  -7.036   1.247  0.00  0.00    -0.334 N 
ATOM     11  H   UNL     1       1.694  -6.091   1.097  0.00  0.00    +0.168 HD
ENDROOT
BRANCH   1  15
ATOM     12  N   UNL     1      -1.956  -2.914  -0.127  0.00  0.00    -0.294 NA
ATOM     13  C   UNL     1      -2.804  -3.994  -0.691  0.00  0.00    +0.103 C 
ATOM     14  C   UNL     1      -1.910  -5.217  -1.002  0.00  0.00    +0.120 C 
ATOM     15  N   UNL     1      -1.252  -5.665   0.244  0.00  0.00    -0.325 N 
ATOM     16  C   UNL     1      -0.499  -4.605   0.931  0.00  0.00    +0.120 C 
ATOM     17  C   UNL     1      -1.408  -3.374   1.159  0.00  0.00    +0.103 C 
BRANCH  12  18
ATOM     18  C   UNL     1      -2.645  -1.628  -0.034  0.00  0.00    +0.143 C 
BRANCH  18  22
ATOM     19  C   UNL     1      -2.042  -0.066  -4.862  0.00  0.00    +0.089 C 
ATOM     20  C   UNL     1      -2.453  -0.440  -3.498  0.00  0.00    +0.135 A 
ATOM     21  C   UNL     1      -1.800  -0.981  -2.423  0.00  0.00    +0.072 A 
ATOM     22  C   UNL     1      -2.795  -1.070  -1.416  0.00  0.00    +0.098 A 
ATOM     23  N   UNL     1      -3.974  -0.616  -1.859  0.00  0.00    -0.082 NA
ATOM     24  O   UNL     1      -3.755  -0.225  -3.170  0.00  0.00    -0.360 OA
ENDBRANCH  18  22
ENDBRANCH  12  18
ENDBRANCH   1  15
BRANCH   9  25
ATOM     25  C   UNL     1       3.562  -7.788   2.248  0.00  0.00    +0.128 A 
ATOM     26  N   UNL     1       4.126  -6.569   2.262  0.00  0.00    -0.168 NA
ATOM     27  N   UNL     1       5.344  -6.795   2.796  0.00  0.00    -0.274 N 
ATOM     28  C   UNL     1       5.585  -8.109   3.074  0.00  0.00    +0.108 A 
ATOM     29  C   UNL     1       4.437  -8.781   2.739  0.00  0.00    +0.052 A 
ATOM     30  C   UNL     1       6.247  -5.697   3.048  0.00  0.00    +0.172 C 
ENDBRANCH   9  25
TORSDOF 4
