REMARK  Name = L27
REMARK  2 active torsions:
REMARK  status: ('A' for Active; 'I' for Inactive)
REMARK    1  A    between atoms: C_4  and  N_7
REMARK    2  A    between atoms: N_7  and  C_8
REMARK                            x       y       z     vdW  Elec       q    Type
REMARK                         _______ _______ _______ _____ _____    ______ ____
ROOT
ATOM      1  C   UNL     1      -3.378  -1.048  -0.657  0.00  0.00    +0.044 A 
ATOM      2  C   UNL     1      -3.698  -1.623   0.571  0.00  0.00    +0.046 A 
ATOM      3  C   UNL     1      -2.940  -1.514   1.815  0.00  0.00    -0.000 A 
ATOM      4  C   UNL     1      -1.708  -2.124   2.068  0.00  0.00    +0.009 A 
ATOM      5  C   UNL     1      -1.131  -2.025   3.342  0.00  0.00    +0.001 A 
ATOM      6  C   UNL     1      -1.749  -1.270   4.345  0.00  0.00    +0.001 A 
ATOM      7  C   UNL     1      -3.014  -0.729   4.124  0.00  0.00    +0.014 A 
ATOM      8  C   UNL     1      -3.614  -0.947   2.896  0.00  0.00    +0.047 A 
ATOM      9  C   UNL     1      -5.105  -1.002   2.823  0.00  0.00    +0.258 A 
ATOM     10  O   UNL     1      -5.811  -0.343   3.577  0.00  0.00    -0.267 OA
ATOM     11  N   UNL     1      -5.563  -1.992   1.966  0.00  0.00    -0.306 N 
ATOM     12  C   UNL     1      -4.984  -2.148   0.694  0.00  0.00    +0.143 A 
ATOM     13  N   UNL     1      -5.790  -2.488  -0.329  0.00  0.00    -0.237 NA
ATOM     14  C   UNL     1      -5.393  -2.037  -1.537  0.00  0.00    +0.115 A 
ATOM     15  C   UNL     1      -4.253  -1.266  -1.730  0.00  0.00    +0.043 A 
ATOM     16  H   UNL     1      -6.364  -2.546   2.211  0.00  0.00    +0.170 HD
ENDROOT
BRANCH   1  17
ATOM     17  N   UNL     1      -2.333  -0.098  -0.747  0.00  0.00    -0.314 N 
ATOM     18  H   UNL     1      -1.807   0.066   0.119  0.00  0.00    +0.152 HD
BRANCH  17  22
ATOM     19  C   UNL     1      -0.562   1.562  -4.185  0.00  0.00    +0.000 A 
ATOM     20  C   UNL     1      -0.858   2.380  -3.089  0.00  0.00    +0.002 A 
ATOM     21  C   UNL     1      -1.438   1.818  -1.935  0.00  0.00    +0.023 A 
ATOM     22  C   UNL     1      -1.716   0.449  -1.882  0.00  0.00    +0.031 A 
ATOM     23  C   UNL     1      -1.385  -0.351  -2.959  0.00  0.00    +0.023 A 
ATOM     24  C   UNL     1      -0.818   0.200  -4.101  0.00  0.00    +0.002 A 
ENDBRANCH  17  22
ENDBRANCH   1  17
TORSDOF 2
