REMARK  Name = L162
REMARK  4 active torsions:
REMARK  status: ('A' for Active; 'I' for Inactive)
REMARK    1  A    between atoms: C_1  and  C_2
REMARK    2  A    between atoms: C_4  and  C_7
REMARK    3  A    between atoms: C_7  and  N_8
REMARK    4  A    between atoms: N_11  and  C_14
REMARK                            x       y       z     vdW  Elec       q    Type
REMARK                         _______ _______ _______ _____ _____    ______ ____
ROOT
ATOM      1  C   UNL     1      -1.019  -7.010   0.429  0.00  0.00    +0.073 A 
ATOM      2  C   UNL     1      -0.778  -7.423   1.756  0.00  0.00    +0.109 A 
ATOM      3  C   UNL     1      -0.597  -8.751   2.140  0.00  0.00    +0.181 A 
ATOM      4  N   UNL     1      -0.693  -9.798   1.295  0.00  0.00    -0.233 NA
ATOM      5  C   UNL     1      -0.951  -9.432   0.025  0.00  0.00    +0.130 A 
ATOM      6  C   UNL     1      -1.091  -8.121  -0.452  0.00  0.00    +0.059 A 
ATOM      7 BR   UNL     1      -1.264  -8.009  -2.353  0.00  0.00    -0.047 Br
ATOM      8  N   UNL     1      -0.300  -8.864   3.476  0.00  0.00    -0.195 NA
ATOM      9  C   UNL     1      -0.366  -7.639   3.944  0.00  0.00    +0.198 A 
ATOM     10  N   UNL     1      -0.726  -6.773   2.951  0.00  0.00    -0.323 N 
ATOM     11  N   UNL     1      -0.075  -7.173   5.178  0.00  0.00    -0.299 N 
ATOM     12  C   UNL     1      -0.694  -5.979   5.763  0.00  0.00    +0.123 C 
ATOM     13  C   UNL     1      -1.507  -6.343   7.024  0.00  0.00    +0.100 C 
ATOM     14  N   UNL     1      -0.722  -7.093   8.019  0.00  0.00    -0.313 NA
ATOM     15  C   UNL     1      -0.185  -8.315   7.382  0.00  0.00    +0.100 C 
ATOM     16  C   UNL     1       0.658  -8.027   6.122  0.00  0.00    +0.123 C 
ATOM     17  H   UNL     1      -0.836  -5.787   3.079  0.00  0.00    +0.169 HD
ATOM     18  H   UNL     1      -1.332  -7.367   8.788  0.00  0.00    +0.122 HD
ENDROOT
BRANCH   1  22
ATOM     19  N   UNL     1      -1.970  -2.933  -0.102  0.00  0.00    -0.294 NA
ATOM     20  C   UNL     1      -2.852  -3.982  -0.640  0.00  0.00    +0.103 C 
ATOM     21  C   UNL     1      -2.016  -5.223  -1.015  0.00  0.00    +0.120 C 
ATOM     22  N   UNL     1      -1.209  -5.678   0.132  0.00  0.00    -0.325 N 
ATOM     23  C   UNL     1      -0.423  -4.591   0.764  0.00  0.00    +0.120 C 
ATOM     24  C   UNL     1      -1.367  -3.420   1.142  0.00  0.00    +0.103 C 
BRANCH  19  25
ATOM     25  C   UNL     1      -2.595  -1.619  -0.025  0.00  0.00    +0.143 C 
BRANCH  25  29
ATOM     26  C   UNL     1      -2.061  -0.067  -4.860  0.00  0.00    +0.089 C 
ATOM     27  C   UNL     1      -2.471  -0.491  -3.512  0.00  0.00    +0.135 A 
ATOM     28  C   UNL     1      -1.806  -1.045  -2.452  0.00  0.00    +0.072 A 
ATOM     29  C   UNL     1      -2.778  -1.106  -1.422  0.00  0.00    +0.098 A 
ATOM     30  N   UNL     1      -3.972  -0.680  -1.856  0.00  0.00    -0.082 NA
ATOM     31  O   UNL     1      -3.773  -0.294  -3.173  0.00  0.00    -0.360 OA
ENDBRANCH  25  29
ENDBRANCH  19  25
ENDBRANCH   1  22
TORSDOF 3
