REMARK  Name = L165
REMARK  3 active torsions:
REMARK  status: ('A' for Active; 'I' for Inactive)
REMARK    1  A    between atoms: C_4  and  C_7
REMARK    2  A    between atoms: N_9  and  C_10
REMARK    3  A    between atoms: C_11  and  C_15
REMARK                            x       y       z     vdW  Elec       q    Type
REMARK                         _______ _______ _______ _____ _____    ______ ____
ROOT
ATOM      1  C   UNL     1      -5.078  -0.324  -0.552  0.00  0.00    +0.082 A 
ATOM      2  C   UNL     1      -5.572   0.630  -1.410  0.00  0.00    +0.122 A 
ATOM      3  N   UNL     1      -6.933   0.576  -1.287  0.00  0.00    -0.272 N 
ATOM      4  N   UNL     1      -7.362  -0.423  -0.492  0.00  0.00    -0.180 NA
ATOM      5  C   UNL     1      -6.227  -0.988  -0.065  0.00  0.00    +0.158 A 
ATOM      6  H   UNL     1      -7.614   1.129  -1.797  0.00  0.00    +0.189 HD
ENDROOT
BRANCH   2   7
ATOM      7  C   UNL     1      -4.952   1.425  -2.407  0.00  0.00    +0.159 A 
ATOM      8  N   UNL     1      -5.422   2.566  -2.854  0.00  0.00    -0.226 NA
ATOM      9  C   UNL     1      -4.643   2.872  -3.946  0.00  0.00    +0.090 A 
ATOM     10  C   UNL     1      -4.732   3.955  -4.829  0.00  0.00    +0.030 A 
ATOM     11  C   UNL     1      -3.855   4.004  -5.920  0.00  0.00    +0.002 A 
ATOM     12  C   UNL     1      -2.904   3.001  -6.123  0.00  0.00    +0.002 A 
ATOM     13  C   UNL     1      -2.792   1.923  -5.238  0.00  0.00    +0.028 A 
ATOM     14  C   UNL     1      -3.678   1.895  -4.165  0.00  0.00    +0.067 A 
ATOM     15  N   UNL     1      -3.877   0.998  -3.148  0.00  0.00    -0.337 N 
ATOM     16  H   UNL     1      -3.402   0.115  -3.032  0.00  0.00    +0.167 HD
ENDBRANCH   2   7
BRANCH   1  19
ATOM     17  C   UNL     1      -3.229  -1.833  -0.208  0.00  0.00    +0.248 C 
ATOM     18  O   UNL     1      -3.897  -2.847  -0.383  0.00  0.00    -0.270 OA
ATOM     19  N   UNL     1      -3.732  -0.552  -0.317  0.00  0.00    -0.278 N 
ATOM     20  H   UNL     1      -3.106   0.227  -0.466  0.00  0.00    +0.155 HD
BRANCH  17  24
ATOM     21  C   UNL     1       0.976  -2.365   0.476  0.00  0.00    +0.000 A 
ATOM     22  C   UNL     1       0.197  -3.400  -0.034  0.00  0.00    +0.001 A 
ATOM     23  C   UNL     1      -1.164  -3.197  -0.264  0.00  0.00    +0.013 A 
ATOM     24  C   UNL     1      -1.758  -1.958   0.019  0.00  0.00    +0.037 A 
ATOM     25  C   UNL     1      -0.967  -0.918   0.527  0.00  0.00    +0.013 A 
ATOM     26  C   UNL     1       0.398  -1.126   0.752  0.00  0.00    +0.001 A 
ENDBRANCH  17  24
ENDBRANCH   1  19
TORSDOF 3
