REMARK  Name = L48
REMARK  6 active torsions:
REMARK  status: ('A' for Active; 'I' for Inactive)
REMARK    1  A    between atoms: C_1  and  C_2
REMARK    2  A    between atoms: C_10  and  S_15
REMARK    3  A    between atoms: C_12  and  C_14
REMARK    4  A    between atoms: S_15  and  C_16
REMARK    5  A    between atoms: C_19  and  N_22
REMARK    6  A    between atoms: C_23  and  C_25
REMARK                            x       y       z     vdW  Elec       q    Type
REMARK                         _______ _______ _______ _____ _____    ______ ____
ROOT
ATOM      1  C   UNL     1       6.194  -0.152  -2.739  0.00  0.00    +0.065 C 
ATOM      2  C   UNL     1       5.115   0.085  -1.758  0.00  0.00    +0.035 A 
ATOM      3  C   UNL     1       4.274   1.157  -1.565  0.00  0.00    +0.068 A 
ATOM      4  C   UNL     1       3.489   0.831  -0.435  0.00  0.00    +0.146 A 
ATOM      5  N   UNL     1       3.779  -0.395   0.010  0.00  0.00    -0.158 NA
ATOM      6  N   UNL     1       4.779  -0.810  -0.785  0.00  0.00    -0.280 N 
ATOM      7  N   UNL     1       2.580   1.617   0.178  0.00  0.00    -0.283 N 
ATOM      8  C   UNL     1       2.392   3.010   0.088  0.00  0.00    +0.129 A 
ATOM      9  N   UNL     1       2.931   3.703  -0.925  0.00  0.00    -0.206 NA
ATOM     10  C   UNL     1       2.783   5.034  -0.925  0.00  0.00    +0.195 A 
ATOM     11  N   UNL     1       2.138   5.737   0.016  0.00  0.00    -0.227 NA
ATOM     12  C   UNL     1       1.591   5.029   1.019  0.00  0.00    +0.044 A 
ATOM     13  C   UNL     1       1.683   3.652   1.088  0.00  0.00    +0.067 A 
ATOM     14  C   UNL     1       0.889   5.794   2.101  0.00  0.00    +0.066 C 
ATOM     15  H   UNL     1       5.194  -1.717  -0.598  0.00  0.00    +0.189 HD
ATOM     16  H   UNL     1       2.147   1.192   0.986  0.00  0.00    +0.155 HD
ENDROOT
BRANCH  10  17
ATOM     17  S   UNL     1       3.573   5.919  -2.241  0.00  0.00    -0.050 S 
BRANCH  17  18
ATOM     18  C   UNL     1       2.237   6.051  -3.408  0.00  0.00    +0.016 A 
ATOM     19  C   UNL     1       1.785   7.320  -3.765  0.00  0.00    +0.017 A 
ATOM     20  C   UNL     1       0.780   7.476  -4.725  0.00  0.00    +0.024 A 
ATOM     21  C   UNL     1       0.213   6.367  -5.354  0.00  0.00    +0.033 A 
ATOM     22  C   UNL     1       0.660   5.090  -4.990  0.00  0.00    +0.024 A 
ATOM     23  C   UNL     1       1.668   4.934  -4.025  0.00  0.00    +0.017 A 
BRANCH  21  24
ATOM     24  N   UNL     1      -0.780   6.461  -6.354  0.00  0.00    -0.286 N 
ATOM     25  C   UNL     1      -1.319   7.622  -6.881  0.00  0.00    +0.214 C 
ATOM     26  O   UNL     1      -1.044   8.774  -6.561  0.00  0.00    -0.276 OA
ATOM     27  C   UNL     1      -2.342   7.381  -7.963  0.00  0.00    +0.109 C 
ATOM     28  H   UNL     1      -1.111   5.584  -6.734  0.00  0.00    +0.155 HD
ENDBRANCH  21  24
ENDBRANCH  17  18
ENDBRANCH  10  17
TORSDOF 3
