REMARK  Name = L94
REMARK  7 active torsions:
REMARK  status: ('A' for Active; 'I' for Inactive)
REMARK    1  A    between atoms: C_1  and  C_2
REMARK    2  A    between atoms: C_4  and  C_7
REMARK    3  A    between atoms: C_7  and  N_8
REMARK    4  A    between atoms: N_11  and  C_14
REMARK    5  A    between atoms: C_22  and  C_24
REMARK    6  A    between atoms: C_27  and  N_30
REMARK    7  A    between atoms: N_33  and  C_36
REMARK                            x       y       z     vdW  Elec       q    Type
REMARK                         _______ _______ _______ _____ _____    ______ ____
ROOT
ATOM      1  C   UNL     1      -1.003  -6.982   0.531  0.00  0.00    +0.077 A 
ATOM      2  C   UNL     1      -0.623  -7.983  -0.385  0.00  0.00    +0.108 A 
ATOM      3  C   UNL     1      -0.569  -9.337  -0.084  0.00  0.00    +0.180 A 
ATOM      4  N   UNL     1      -0.903  -9.847   1.118  0.00  0.00    -0.233 NA
ATOM      5  C   UNL     1      -1.273  -8.910   2.016  0.00  0.00    +0.135 A 
ATOM      6  C   UNL     1      -1.328  -7.531   1.798  0.00  0.00    +0.082 A 
ATOM      7 CL   UNL     1      -1.671  -6.558   3.193  0.00  0.00    -0.080 Cl
ATOM      8  N   UNL     1      -0.115 -10.079  -1.140  0.00  0.00    -0.208 NA
ATOM      9  C   UNL     1       0.108  -9.217  -2.112  0.00  0.00    +0.144 A 
ATOM     10  N   UNL     1      -0.252  -7.953  -1.704  0.00  0.00    -0.335 N 
ATOM     11  H   UNL     1      -0.209  -7.134  -2.292  0.00  0.00    +0.167 HD
ENDROOT
BRANCH   9  12
ATOM     12  C   UNL     1       0.633  -9.507  -3.446  0.00  0.00    +0.053 A 
ATOM     13  C   UNL     1       0.923  -8.504  -4.367  0.00  0.00    +0.136 A 
ATOM     14  C   UNL     1       1.386  -8.790  -5.649  0.00  0.00    +0.062 A 
ATOM     15  C   UNL     1       1.579 -10.110  -6.073  0.00  0.00    +0.033 A 
ATOM     16  C   UNL     1       1.320 -11.117  -5.130  0.00  0.00    +0.024 A 
ATOM     17  C   UNL     1       0.856 -10.828  -3.838  0.00  0.00    +0.016 A 
ATOM     18  F   UNL     1       0.735  -7.206  -4.045  0.00  0.00    -0.205 F 
BRANCH  15  19
ATOM     19  N   UNL     1       1.969 -10.399  -7.362  0.00  0.00    -0.327 N 
ATOM     20  C   UNL     1       1.585 -11.652  -8.029  0.00  0.00    +0.120 C 
ATOM     21  C   UNL     1       1.106 -11.357  -9.473  0.00  0.00    +0.103 C 
ATOM     22  N   UNL     1       2.024 -10.540 -10.301  0.00  0.00    -0.302 NA
ATOM     23  C   UNL     1       2.386  -9.317  -9.549  0.00  0.00    +0.103 C 
ATOM     24  C   UNL     1       2.911  -9.556  -8.114  0.00  0.00    +0.120 C 
ATOM     25  C   UNL     1       3.209 -11.301 -10.688  0.00  0.00    +0.105 C 
ENDBRANCH  15  19
ENDBRANCH   9  12
BRANCH   1  29
ATOM     26  N   UNL     1      -0.665  -2.799   0.010  0.00  0.00    -0.294 NA
ATOM     27  C   UNL     1      -1.497  -3.386   1.087  0.00  0.00    +0.103 C 
ATOM     28  C   UNL     1      -2.083  -4.726   0.587  0.00  0.00    +0.120 C 
ATOM     29  N   UNL     1      -0.974  -5.635   0.234  0.00  0.00    -0.325 N 
ATOM     30  C   UNL     1      -0.021  -5.059  -0.732  0.00  0.00    +0.120 C 
ATOM     31  C   UNL     1       0.483  -3.685  -0.232  0.00  0.00    +0.103 C 
BRANCH  26  32
ATOM     32  C   UNL     1      -0.287  -1.410   0.259  0.00  0.00    +0.143 C 
BRANCH  32  36
ATOM     33  C   UNL     1      -4.584   0.826  -1.363  0.00  0.00    +0.089 C 
ATOM     34  C   UNL     1      -3.363   0.340  -0.701  0.00  0.00    +0.135 A 
ATOM     35  C   UNL     1      -2.420  -0.601  -1.018  0.00  0.00    +0.072 A 
ATOM     36  C   UNL     1      -1.501  -0.555   0.062  0.00  0.00    +0.098 A 
ATOM     37  N   UNL     1      -1.871   0.352   0.975  0.00  0.00    -0.082 NA
ATOM     38  O   UNL     1      -3.044   0.910   0.492  0.00  0.00    -0.360 OA
ENDBRANCH  32  36
ENDBRANCH  26  32
ENDBRANCH   1  29
TORSDOF 5
