REMARK  Name = L141
REMARK  7 active torsions:
REMARK  status: ('A' for Active; 'I' for Inactive)
REMARK    1  A    between atoms: C_1  and  C_2
REMARK    2  A    between atoms: C_3  and  C_9
REMARK    3  A    between atoms: C_4  and  C_8
REMARK    4  A    between atoms: N_6  and  C_7
REMARK    5  A    between atoms: C_15  and  N_18
REMARK    6  A    between atoms: N_21  and  C_24
REMARK    7  A    between atoms: C_24  and  C_25
REMARK                            x       y       z     vdW  Elec       q    Type
REMARK                         _______ _______ _______ _____ _____    ______ ____
ROOT
ATOM      1  C   UNL     1      -0.886   2.729   0.059  0.00  0.00    +0.145 A 
ATOM      2  N   UNL     1      -1.705   3.260   0.940  0.00  0.00    -0.208 NA
ATOM      3  C   UNL     1      -1.729   4.596   0.646  0.00  0.00    +0.180 A 
ATOM      4  N   UNL     1      -2.406   5.513   1.360  0.00  0.00    -0.233 NA
ATOM      5  C   UNL     1      -2.287   6.766   0.879  0.00  0.00    +0.130 A 
ATOM      6  C   UNL     1      -1.578   7.148  -0.268  0.00  0.00    +0.059 A 
ATOM      7  C   UNL     1      -0.881   6.191  -1.050  0.00  0.00    +0.073 A 
ATOM      8  C   UNL     1      -0.981   4.897  -0.488  0.00  0.00    +0.108 A 
ATOM      9  N   UNL     1      -0.472   3.673  -0.841  0.00  0.00    -0.335 N 
ATOM     10 BR   UNL     1      -1.518   9.035  -0.557  0.00  0.00    -0.047 Br
ATOM     11  H   UNL     1       0.079   3.473  -1.657  0.00  0.00    +0.167 HD
ENDROOT
BRANCH   1  14
ATOM     12  C   UNL     1       1.982   1.377  -0.879  0.00  0.00    +0.066 C 
ATOM     13  C   UNL     1       0.710   0.770  -0.413  0.00  0.00    +0.047 A 
ATOM     14  C   UNL     1      -0.496   1.297   0.015  0.00  0.00    +0.061 A 
ATOM     15  C   UNL     1      -1.282   0.191   0.409  0.00  0.00    +0.071 A 
ATOM     16  N   UNL     1      -0.623  -0.967   0.236  0.00  0.00    -0.176 NA
ATOM     17  N   UNL     1       0.579  -0.590  -0.226  0.00  0.00    -0.271 N 
ATOM     18  C   UNL     1       1.586  -1.603  -0.457  0.00  0.00    +0.172 C 
ATOM     19  C   UNL     1      -2.697   0.152   0.863  0.00  0.00    +0.068 C 
ENDBRANCH   1  14
BRANCH   7  20
ATOM     20  N   UNL     1      -0.145   6.449  -2.188  0.00  0.00    -0.325 N 
ATOM     21  C   UNL     1      -0.580   7.370  -3.254  0.00  0.00    +0.120 C 
ATOM     22  C   UNL     1       0.596   8.307  -3.652  0.00  0.00    +0.103 C 
ATOM     23  N   UNL     1       1.854   7.600  -4.024  0.00  0.00    -0.295 NA
ATOM     24  C   UNL     1       2.205   6.708  -2.895  0.00  0.00    +0.103 C 
ATOM     25  C   UNL     1       1.094   5.717  -2.487  0.00  0.00    +0.120 C 
BRANCH  23  26
ATOM     26  C   UNL     1       1.670   6.879  -5.297  0.00  0.00    +0.121 C 
BRANCH  26  27
ATOM     27  C   UNL     1       2.868   6.097  -5.770  0.00  0.00    -0.015 A 
ATOM     28  C   UNL     1       2.780   4.724  -5.986  0.00  0.00    +0.115 A 
ATOM     29  N   UNL     1       3.790   3.959  -6.456  0.00  0.00    -0.263 NA
ATOM     30  C   UNL     1       4.944   4.597  -6.744  0.00  0.00    +0.111 A 
ATOM     31  C   UNL     1       5.136   5.958  -6.557  0.00  0.00    +0.020 A 
ATOM     32  C   UNL     1       4.086   6.714  -6.056  0.00  0.00    +0.008 A 
ENDBRANCH  26  27
ENDBRANCH  23  26
ENDBRANCH   7  20
TORSDOF 4
