REMARK  Name = L96
REMARK  7 active torsions:
REMARK  status: ('A' for Active; 'I' for Inactive)
REMARK    1  A    between atoms: C_1  and  C_2
REMARK    2  A    between atoms: C_4  and  C_7
REMARK    3  A    between atoms: C_7  and  N_8
REMARK    4  A    between atoms: N_11  and  C_14
REMARK    5  A    between atoms: C_22  and  C_24
REMARK    6  A    between atoms: N_26  and  C_32
REMARK    7  A    between atoms: C_28  and  C_29
REMARK                            x       y       z     vdW  Elec       q    Type
REMARK                         _______ _______ _______ _____ _____    ______ ____
ROOT
ATOM      1  C   UNL     1      -1.115  -7.031   0.525  0.00  0.00    +0.077 A 
ATOM      2  C   UNL     1      -0.815  -8.066  -0.384  0.00  0.00    +0.108 A 
ATOM      3  C   UNL     1      -0.768  -9.412  -0.050  0.00  0.00    +0.180 A 
ATOM      4  N   UNL     1      -1.053  -9.885   1.180  0.00  0.00    -0.233 NA
ATOM      5  C   UNL     1      -1.344  -8.917   2.074  0.00  0.00    +0.135 A 
ATOM      6  C   UNL     1      -1.377  -7.542   1.825  0.00  0.00    +0.082 A 
ATOM      7 CL   UNL     1      -1.597  -6.536   3.221  0.00  0.00    -0.080 Cl
ATOM      8  N   UNL     1      -0.343 -10.189  -1.094  0.00  0.00    -0.208 NA
ATOM      9  C   UNL     1      -0.105  -9.351  -2.076  0.00  0.00    +0.144 A 
ATOM     10  N   UNL     1      -0.511  -8.082  -1.726  0.00  0.00    -0.335 N 
ATOM     11  H   UNL     1      -0.488  -7.288  -2.330  0.00  0.00    +0.167 HD
ENDROOT
BRANCH   1  15
ATOM     12  N   UNL     1      -0.555  -2.880  -0.010  0.00  0.00    -0.294 NA
ATOM     13  C   UNL     1      -1.336  -3.423   1.128  0.00  0.00    +0.103 C 
ATOM     14  C   UNL     1      -2.065  -4.704   0.657  0.00  0.00    +0.120 C 
ATOM     15  N   UNL     1      -1.075  -5.694   0.184  0.00  0.00    -0.325 N 
ATOM     16  C   UNL     1      -0.145  -5.167  -0.830  0.00  0.00    +0.120 C 
ATOM     17  C   UNL     1       0.499  -3.846  -0.351  0.00  0.00    +0.103 C 
BRANCH  12  18
ATOM     18  C   UNL     1      -0.048  -1.529   0.225  0.00  0.00    +0.143 C 
BRANCH  18  22
ATOM     19  C   UNL     1      -4.247   1.154  -0.909  0.00  0.00    +0.089 C 
ATOM     20  C   UNL     1      -3.031   0.519  -0.375  0.00  0.00    +0.135 A 
ATOM     21  C   UNL     1      -2.217  -0.493  -0.808  0.00  0.00    +0.072 A 
ATOM     22  C   UNL     1      -1.201  -0.574   0.178  0.00  0.00    +0.098 A 
ATOM     23  N   UNL     1      -1.403   0.321   1.154  0.00  0.00    -0.082 NA
ATOM     24  O   UNL     1      -2.556   1.004   0.803  0.00  0.00    -0.360 OA
ENDBRANCH  18  22
ENDBRANCH  12  18
ENDBRANCH   1  15
BRANCH   9  25
ATOM     25  C   UNL     1       0.570  -9.674  -3.357  0.00  0.00    +0.058 A 
ATOM     26  C   UNL     1       0.921  -8.748  -4.317  0.00  0.00    +0.119 A 
ATOM     27  N   UNL     1       1.601  -9.441  -5.276  0.00  0.00    -0.274 N 
ATOM     28  N   UNL     1       1.687 -10.757  -5.028  0.00  0.00    -0.175 NA
ATOM     29  C   UNL     1       1.052 -10.908  -3.857  0.00  0.00    +0.077 A 
ATOM     30  C   UNL     1       2.223  -8.899  -6.459  0.00  0.00    +0.172 C 
BRANCH  29  31
ATOM     31  C   UNL     1       0.889 -12.266  -3.181  0.00  0.00    +0.040 C 
ATOM     32  C   UNL     1       0.810 -13.502  -4.059  0.00  0.00    +0.010 C 
ATOM     33  C   UNL     1       2.033 -13.261  -3.243  0.00  0.00    +0.010 C 
ENDBRANCH  29  31
ENDBRANCH   9  25
TORSDOF 5
