REMARK  Name = L53
REMARK  7 active torsions:
REMARK  status: ('A' for Active; 'I' for Inactive)
REMARK    1  A    between atoms: C_1  and  C_2
REMARK    2  A    between atoms: C_2  and  C_3
REMARK    3  A    between atoms: N_5  and  C_6
REMARK    4  A    between atoms: C_9  and  S_12
REMARK    5  A    between atoms: S_12  and  C_13
REMARK    6  A    between atoms: C_15  and  C_26
REMARK    7  A    between atoms: C_23  and  C_25
REMARK                            x       y       z     vdW  Elec       q    Type
REMARK                         _______ _______ _______ _____ _____    ______ ____
ROOT
ATOM      1  C   UNL     1       5.276   3.758  -7.516  0.00  0.00    +0.195 A 
ATOM      2  N   UNL     1       4.534   3.587  -8.623  0.00  0.00    -0.221 NA
ATOM      3  C   UNL     1       3.800   4.631  -9.034  0.00  0.00    +0.079 A 
ATOM      4  C   UNL     1       3.842   5.835  -8.373  0.00  0.00    +0.072 A 
ATOM      5  C   UNL     1       4.651   5.950  -7.261  0.00  0.00    +0.129 A 
ATOM      6  N   UNL     1       5.349   4.899  -6.804  0.00  0.00    -0.206 NA
ATOM      7  N   UNL     1       4.758   7.162  -6.557  0.00  0.00    -0.283 N 
ATOM      8  C   UNL     1       4.448   8.414  -6.969  0.00  0.00    +0.146 A 
ATOM      9  N   UNL     1       4.087   8.775  -8.204  0.00  0.00    -0.158 NA
ATOM     10  N   UNL     1       3.891  10.092  -8.139  0.00  0.00    -0.280 N 
ATOM     11  C   UNL     1       4.078  10.610  -6.892  0.00  0.00    +0.035 A 
ATOM     12  C   UNL     1       4.473   9.542  -6.112  0.00  0.00    +0.068 A 
ATOM     13  C   UNL     1       3.858  12.041  -6.598  0.00  0.00    +0.065 C 
ATOM     14  H   UNL     1       5.310   7.021  -5.719  0.00  0.00    +0.155 HD
ATOM     15  H   UNL     1       3.617  10.577  -8.988  0.00  0.00    +0.189 HD
ENDROOT
BRANCH   3  16
ATOM     16  C   UNL     1       2.935   4.418 -10.203  0.00  0.00    +0.019 A 
ATOM     17  C   UNL     1       3.297   3.560 -11.240  0.00  0.00    +0.120 A 
ATOM     18  N   UNL     1       2.553   3.333 -12.355  0.00  0.00    -0.263 NA
ATOM     19  C   UNL     1       1.380   3.992 -12.446  0.00  0.00    +0.111 A 
ATOM     20  C   UNL     1       0.912   4.861 -11.479  0.00  0.00    +0.020 A 
ATOM     21  C   UNL     1       1.699   5.070 -10.349  0.00  0.00    +0.013 A 
ENDBRANCH   3  16
BRANCH   1  22
ATOM     22  S   UNL     1       6.209   2.371  -6.895  0.00  0.00    -0.050 S 
BRANCH  22  26
ATOM     23  C   UNL     1       5.646  -0.908 -10.088  0.00  0.00    +0.033 A 
ATOM     24  C   UNL     1       6.896  -0.334  -9.844  0.00  0.00    +0.024 A 
ATOM     25  C   UNL     1       7.057   0.666  -8.880  0.00  0.00    +0.017 A 
ATOM     26  C   UNL     1       5.965   1.117  -8.140  0.00  0.00    +0.016 A 
ATOM     27  C   UNL     1       4.713   0.540  -8.374  0.00  0.00    +0.017 A 
ATOM     28  C   UNL     1       4.548  -0.451  -9.355  0.00  0.00    +0.024 A 
BRANCH  23  31
ATOM     29  C   UNL     1       6.434  -2.657 -11.674  0.00  0.00    +0.217 C 
ATOM     30  O   UNL     1       7.632  -2.623 -11.392  0.00  0.00    -0.275 OA
ATOM     31  N   UNL     1       5.439  -1.916 -11.057  0.00  0.00    -0.286 N 
ATOM     32  H   UNL     1       4.478  -2.171 -11.250  0.00  0.00    +0.155 HD
BRANCH  29  34
ATOM     33  C   UNL     1       7.041  -4.405 -13.359  0.00  0.00    +0.013 C 
ATOM     34  C   UNL     1       5.912  -3.569 -12.769  0.00  0.00    +0.093 C 
ENDBRANCH  29  34
ENDBRANCH  23  31
ENDBRANCH  22  26
ENDBRANCH   1  22
TORSDOF 5
