REMARK  Name = L68
REMARK  8 active torsions:
REMARK  status: ('A' for Active; 'I' for Inactive)
REMARK    1  A    between atoms: C_1  and  C_2
REMARK    2  A    between atoms: C_10  and  S_17
REMARK    3  A    between atoms: S_17  and  C_18
REMARK    4  A    between atoms: C_21  and  N_24
REMARK    5  A    between atoms: C_25  and  C_27
REMARK    6  A    between atoms: C_27  and  N_28
REMARK    7  A    between atoms: C_31  and  C_33
REMARK    8  A    between atoms: N_35  and  C_36
REMARK                            x       y       z     vdW  Elec       q    Type
REMARK                         _______ _______ _______ _____ _____    ______ ____
ROOT
ATOM      1  C   UNL     1       0.287   4.731   3.704  0.00  0.00    +0.016 A 
ATOM      2  C   UNL     1      -0.989   4.707   4.277  0.00  0.00    +0.017 A 
ATOM      3  C   UNL     1      -1.267   3.838   5.341  0.00  0.00    +0.024 A 
ATOM      4  C   UNL     1      -0.272   3.001   5.849  0.00  0.00    +0.033 A 
ATOM      5  C   UNL     1       1.009   3.033   5.296  0.00  0.00    +0.024 A 
ATOM      6  C   UNL     1       1.278   3.880   4.209  0.00  0.00    +0.017 A 
ENDROOT
BRANCH   4   7
ATOM      7  N   UNL     1      -0.571   2.181   6.958  0.00  0.00    -0.284 N 
ATOM      8  C   UNL     1      -1.046   0.881   6.760  0.00  0.00    +0.231 C 
ATOM      9  O   UNL     1      -1.330   0.415   5.657  0.00  0.00    -0.274 OA
ATOM     10  H   UNL     1       0.038   2.281   7.763  0.00  0.00    +0.155 HD
BRANCH   8  11
ATOM     11  C   UNL     1      -1.202   0.080   8.065  0.00  0.00    +0.180 C 
BRANCH  11  12
ATOM     12  N   UNL     1      -0.344  -1.112   8.176  0.00  0.00    -0.293 NA
ATOM     13  C   UNL     1       1.089  -0.852   8.040  0.00  0.00    +0.085 C 
ATOM     14  C   UNL     1       1.453  -1.367   6.660  0.00  0.00    +0.029 C 
ATOM     15  C   UNL     1       0.583  -2.615   6.522  0.00  0.00    +0.090 C 
ATOM     16  C   UNL     1      -0.693  -2.227   7.275  0.00  0.00    +0.097 C 
BRANCH  15  17
ATOM     17  C   UNL     1       1.279  -3.839   7.125  0.00  0.00    +0.222 C 
ATOM     18  O   UNL     1       2.396  -3.745   7.632  0.00  0.00    -0.275 OA
ATOM     19  N   UNL     1       0.580  -5.031   6.983  0.00  0.00    -0.285 N 
ATOM     20  H   UNL     1      -0.197  -5.044   6.338  0.00  0.00    +0.155 HD
BRANCH  19  21
ATOM     21  C   UNL     1       0.973  -6.276   7.536  0.00  0.00    +0.034 A 
ATOM     22  C   UNL     1       1.931  -6.394   8.551  0.00  0.00    +0.026 A 
ATOM     23  C   UNL     1       2.293  -7.645   9.056  0.00  0.00    +0.040 A 
ATOM     24  C   UNL     1       1.691  -8.786   8.550  0.00  0.00    +0.124 A 
ATOM     25  C   UNL     1       0.724  -8.696   7.556  0.00  0.00    +0.040 A 
ATOM     26  C   UNL     1       0.357  -7.441   7.054  0.00  0.00    +0.026 A 
ATOM     27  F   UNL     1       2.043  -9.986   9.029  0.00  0.00    -0.205 F 
ENDBRANCH  19  21
ENDBRANCH  15  17
ENDBRANCH  11  12
ENDBRANCH   8  11
ENDBRANCH   4   7
BRANCH   1  28
ATOM     28  S   UNL     1       0.630   5.794   2.314  0.00  0.00    -0.048 S 
BRANCH  28  38
ATOM     29  C   UNL     1      -0.187   9.898  -2.546  0.00  0.00    +0.065 C 
ATOM     30  C   UNL     1       0.531  10.391  -1.354  0.00  0.00    +0.035 A 
ATOM     31  C   UNL     1       1.078   9.717  -0.288  0.00  0.00    +0.068 A 
ATOM     32  C   UNL     1       1.583  10.710   0.580  0.00  0.00    +0.146 A 
ATOM     33  N   UNL     1       1.429  11.927   0.048  0.00  0.00    -0.158 NA
ATOM     34  N   UNL     1       0.770  11.710  -1.105  0.00  0.00    -0.280 N 
ATOM     35  N   UNL     1       2.155  10.530   1.791  0.00  0.00    -0.281 N 
ATOM     36  C   UNL     1       1.873   9.462   2.625  0.00  0.00    +0.153 A 
ATOM     37  N   UNL     1       1.472   8.299   2.201  0.00  0.00    -0.203 NA
ATOM     38  C   UNL     1       1.186   7.281   3.076  0.00  0.00    +0.214 A 
ATOM     39  N   UNL     1       1.293   7.337   4.363  0.00  0.00    -0.139 NA
ATOM     40  N   UNL     1       1.711   8.515   4.821  0.00  0.00    -0.234 N 
ATOM     41  C   UNL     1       2.018   9.592   4.049  0.00  0.00    +0.105 A 
ATOM     42  C   UNL     1       2.396  10.627   4.884  0.00  0.00    +0.033 A 
ATOM     43  C   UNL     1       2.301  10.144   6.214  0.00  0.00    +0.022 A 
ATOM     44  C   UNL     1       1.883   8.834   6.139  0.00  0.00    +0.113 A 
ATOM     45  H   UNL     1       0.509  12.512  -1.669  0.00  0.00    +0.189 HD
ATOM     46  H   UNL     1       2.432  11.390   2.244  0.00  0.00    +0.155 HD
ENDBRANCH  28  38
ENDBRANCH   1  28
TORSDOF 7
