REMARK  Name = L139
REMARK  6 active torsions:
REMARK  status: ('A' for Active; 'I' for Inactive)
REMARK    1  A    between atoms: C_1  and  N_2
REMARK    2  A    between atoms: N_2  and  C_3
REMARK    3  A    between atoms: N_2  and  C_4
REMARK    4  A    between atoms: C_7  and  C_10
REMARK    5  A    between atoms: C_16  and  N_19
REMARK    6  A    between atoms: N_27  and  C_28
REMARK                            x       y       z     vdW  Elec       q    Type
REMARK                         _______ _______ _______ _____ _____    ______ ____
ROOT
ATOM      1  C   UNL     1       5.507   1.540   4.539  0.00  0.00    +0.141 A 
ATOM      2  N   UNL     1       6.051   0.764   5.455  0.00  0.00    -0.208 NA
ATOM      3  C   UNL     1       6.607   1.613   6.374  0.00  0.00    +0.180 A 
ATOM      4  N   UNL     1       7.243   1.214   7.491  0.00  0.00    -0.233 NA
ATOM      5  C   UNL     1       7.648   2.234   8.272  0.00  0.00    +0.130 A 
ATOM      6  C   UNL     1       7.455   3.601   8.022  0.00  0.00    +0.059 A 
ATOM      7  C   UNL     1       6.807   4.044   6.839  0.00  0.00    +0.073 A 
ATOM      8  C   UNL     1       6.416   2.947   6.036  0.00  0.00    +0.108 A 
ATOM      9  N   UNL     1       5.819   2.851   4.802  0.00  0.00    -0.335 N 
ATOM     10 BR   UNL     1       7.975   4.744   9.458  0.00  0.00    -0.047 Br
ATOM     11  H   UNL     1       5.600   3.623   4.195  0.00  0.00    +0.167 HD
ENDROOT
BRANCH   7  12
ATOM     12  N   UNL     1       6.505   5.351   6.503  0.00  0.00    -0.324 N 
ATOM     13  C   UNL     1       5.289   5.683   5.735  0.00  0.00    +0.124 C 
ATOM     14  C   UNL     1       4.526   6.818   6.424  0.00  0.00    +0.128 C 
ATOM     15  N   UNL     1       5.386   7.982   6.635  0.00  0.00    -0.282 N 
ATOM     16  C   UNL     1       6.611   7.669   7.396  0.00  0.00    +0.128 C 
ATOM     17  C   UNL     1       7.394   6.514   6.717  0.00  0.00    +0.124 C 
ATOM     18  C   UNL     1       4.949   9.188   6.122  0.00  0.00    +0.307 C 
ATOM     19  O   UNL     1       3.878   9.252   5.524  0.00  0.00    -0.252 OA
ATOM     20  N   UNL     1       5.775  10.272   6.319  0.00  0.00    -0.269 N 
ATOM     21  H   UNL     1       6.750  10.083   6.476  0.00  0.00    +0.156 HD
BRANCH  20  22
ATOM     22  C   UNL     1       5.454  11.604   5.979  0.00  0.00    +0.035 A 
ATOM     23  C   UNL     1       4.148  12.047   5.751  0.00  0.00    +0.023 A 
ATOM     24  C   UNL     1       3.893  13.366   5.368  0.00  0.00    +0.002 A 
ATOM     25  C   UNL     1       4.944  14.264   5.229  0.00  0.00    +0.000 A 
ATOM     26  C   UNL     1       6.248  13.849   5.490  0.00  0.00    +0.002 A 
ATOM     27  C   UNL     1       6.503  12.527   5.871  0.00  0.00    +0.023 A 
ENDBRANCH  20  22
ENDBRANCH   7  12
BRANCH   1  31
ATOM     28  C   UNL     1       3.141   0.251   1.145  0.00  0.00    +0.029 A 
ATOM     29  C   UNL     1       3.002   1.534   1.698  0.00  0.00    +0.024 A 
ATOM     30  C   UNL     1       3.759   1.962   2.800  0.00  0.00    +0.013 A 
ATOM     31  C   UNL     1       4.712   1.122   3.384  0.00  0.00    +0.017 A 
ATOM     32  C   UNL     1       4.878  -0.152   2.843  0.00  0.00    +0.013 A 
ATOM     33  C   UNL     1       4.114  -0.570   1.742  0.00  0.00    +0.024 A 
BRANCH  28  35
ATOM     34  C   UNL     1       1.364   0.696  -0.522  0.00  0.00    +0.129 C 
ATOM     35  N   UNL     1       2.376  -0.179   0.060  0.00  0.00    -0.336 N 
ATOM     36  C   UNL     1       2.227  -1.612  -0.179  0.00  0.00    +0.129 C 
ENDBRANCH  28  35
ENDBRANCH   1  31
TORSDOF 4
