REMARK  Name = L184
REMARK  7 active torsions:
REMARK  status: ('A' for Active; 'I' for Inactive)
REMARK    1  A    between atoms: C_3  and  C_30
REMARK    2  A    between atoms: C_5  and  C_6
REMARK    3  A    between atoms: C_8  and  N_12
REMARK    4  A    between atoms: N_19  and  C_20
REMARK    5  A    between atoms: C_24  and  C_26
REMARK    6  A    between atoms: C_30  and  N_31
REMARK    7  A    between atoms: C_30  and  O_32
REMARK                            x       y       z     vdW  Elec       q    Type
REMARK                         _______ _______ _______ _____ _____    ______ ____
ROOT
ATOM      1  N   UNL     1       0.460  -6.173   0.304  0.00  0.00    -0.284 N 
ATOM      2  C   UNL     1       0.932  -6.447  -0.989  0.00  0.00    +0.221 A 
ATOM      3  N   UNL     1       0.203  -7.279  -1.742  0.00  0.00    -0.223 NA
ATOM      4  C   UNL     1       0.614  -7.447  -3.013  0.00  0.00    +0.118 A 
ATOM      5  C   UNL     1       1.704  -6.809  -3.556  0.00  0.00    +0.063 A 
ATOM      6  C   UNL     1       2.418  -5.998  -2.703  0.00  0.00    +0.128 A 
ATOM      7  N   UNL     1       2.038  -5.831  -1.428  0.00  0.00    -0.199 NA
ATOM      8  N   UNL     1       3.552  -5.310  -3.200  0.00  0.00    -0.299 N 
ATOM      9  H   UNL     1      -0.455  -6.604   0.360  0.00  0.00    +0.155 HD
ATOM     10  H   UNL     1       3.245  -4.667  -3.928  0.00  0.00    +0.154 HD
ENDROOT
BRANCH   1  13
ATOM     11  C   UNL     1       0.395  -2.442   0.712  0.00  0.00    -0.043 A 
ATOM     12  C   UNL     1       0.454  -3.718   0.130  0.00  0.00    +0.027 A 
ATOM     13  C   UNL     1       0.465  -4.890   0.898  0.00  0.00    +0.034 A 
ATOM     14  C   UNL     1       0.376  -4.770   2.285  0.00  0.00    +0.023 A 
ATOM     15  C   UNL     1       0.335  -3.506   2.888  0.00  0.00    +0.002 A 
ATOM     16  C   UNL     1       0.347  -2.350   2.104  0.00  0.00    +0.004 A 
BRANCH  11  21
ATOM     17  C   UNL     1      -0.905  -1.144  -1.028  0.00  0.00    +0.008 C 
ATOM     18  C   UNL     1      -0.500  -0.237  -2.176  0.00  0.00    +0.008 C 
ATOM     19  C   UNL     1       0.932  -0.669  -2.507  0.00  0.00    +0.033 C 
ATOM     20  C   UNL     1       1.535  -1.058  -1.138  0.00  0.00    +0.015 C 
ATOM     21  C   UNL     1       0.354  -1.204  -0.154  0.00  0.00    +0.019 C 
BRANCH  19  22
ATOM     22  C   UNL     1       1.030  -1.825  -3.526  0.00  0.00    +0.183 C 
BRANCH  22  23
ATOM     23  N   UNL     1       0.448  -1.498  -4.807  0.00  0.00    -0.306 NA
ATOM     24  H   UNL     1       0.644  -0.527  -5.041  0.00  0.00    +0.121 HD
ATOM     25  H   UNL     1      -0.567  -1.555  -4.730  0.00  0.00    +0.121 HD
ENDBRANCH  22  23
BRANCH  22  26
ATOM     26  O   UNL     1       2.387  -2.100  -3.786  0.00  0.00    -0.377 OA
ATOM     27  H   UNL     1       2.596  -1.547  -4.555  0.00  0.00    +0.211 HD
ENDBRANCH  22  26
ENDBRANCH  19  22
ENDBRANCH  11  21
ENDBRANCH   1  13
BRANCH   8  28
ATOM     28  C   UNL     1       4.557  -4.719  -2.395  0.00  0.00    +0.033 A 
ATOM     29  C   UNL     1       5.192  -3.544  -2.813  0.00  0.00    +0.023 A 
ATOM     30  C   UNL     1       6.210  -2.965  -2.049  0.00  0.00    +0.002 A 
ATOM     31  C   UNL     1       6.630  -3.576  -0.870  0.00  0.00    +0.012 A 
ATOM     32  C   UNL     1       6.040  -4.775  -0.448  0.00  0.00    +0.057 A 
ATOM     33  C   UNL     1       5.014  -5.337  -1.223  0.00  0.00    +0.035 A 
BRANCH  32  34
ATOM     34  C   UNL     1       6.489  -5.477   0.807  0.00  0.00    +0.417 C 
ATOM     35  F   UNL     1       7.504  -4.835   1.455  0.00  0.00    -0.166 F 
ATOM     36  F   UNL     1       5.496  -5.618   1.727  0.00  0.00    -0.166 F 
ATOM     37  F   UNL     1       6.953  -6.736   0.561  0.00  0.00    -0.166 F 
ENDBRANCH  32  34
ENDBRANCH   8  28
TORSDOF 7
