REMARK  Name = L164
REMARK  5 active torsions:
REMARK  status: ('A' for Active; 'I' for Inactive)
REMARK    1  A    between atoms: N_6  and  C_7
REMARK    2  A    between atoms: C_7  and  C_8
REMARK    3  A    between atoms: C_15  and  C_17
REMARK    4  A    between atoms: C_18  and  N_22
REMARK    5  A    between atoms: C_23  and  C_25
REMARK                            x       y       z     vdW  Elec       q    Type
REMARK                         _______ _______ _______ _____ _____    ______ ____
ROOT
ATOM      1  C   UNL     1      -2.083   1.389  -2.286  0.00  0.00    -0.031 A 
ATOM      2  C   UNL     1      -3.239   1.317  -3.086  0.00  0.00    +0.032 A 
ATOM      3  C   UNL     1      -3.745   2.523  -3.563  0.00  0.00    +0.067 A 
ATOM      4  C   UNL     1      -3.166   3.761  -3.311  0.00  0.00    +0.090 A 
ATOM      5  C   UNL     1      -1.992   3.824  -2.553  0.00  0.00    +0.030 A 
ATOM      6  C   UNL     1      -1.469   2.631  -2.037  0.00  0.00    +0.007 A 
ATOM      7  N   UNL     1      -3.910   4.779  -3.861  0.00  0.00    -0.226 NA
ATOM      8  C   UNL     1      -4.960   4.183  -4.380  0.00  0.00    +0.159 A 
ATOM      9  N   UNL     1      -4.839   2.820  -4.329  0.00  0.00    -0.337 N 
ATOM     10  H   UNL     1      -5.475   2.156  -4.746  0.00  0.00    +0.167 HD
ENDROOT
BRANCH   8  11
ATOM     11  C   UNL     1      -6.079   4.849  -4.936  0.00  0.00    +0.122 A 
ATOM     12  C   UNL     1      -7.381   4.444  -5.127  0.00  0.00    +0.082 A 
ATOM     13  C   UNL     1      -7.973   5.490  -5.870  0.00  0.00    +0.158 A 
ATOM     14  N   UNL     1      -7.133   6.514  -6.065  0.00  0.00    -0.180 NA
ATOM     15  N   UNL     1      -5.992   6.100  -5.480  0.00  0.00    -0.272 N 
ATOM     16  H   UNL     1      -5.171   6.697  -5.513  0.00  0.00    +0.189 HD
BRANCH  12  17
ATOM     17  N   UNL     1      -7.924   3.264  -4.647  0.00  0.00    -0.278 N 
ATOM     18  C   UNL     1      -8.841   2.522  -5.361  0.00  0.00    +0.248 C 
ATOM     19  O   UNL     1      -9.172   2.725  -6.521  0.00  0.00    -0.270 OA
ATOM     20  H   UNL     1      -7.497   2.857  -3.825  0.00  0.00    +0.155 HD
BRANCH  18  21
ATOM     21  C   UNL     1      -9.336   1.318  -4.650  0.00  0.00    +0.037 A 
ATOM     22  C   UNL     1      -9.718   1.396  -3.306  0.00  0.00    +0.013 A 
ATOM     23  C   UNL     1     -10.206   0.253  -2.657  0.00  0.00    +0.001 A 
ATOM     24  C   UNL     1     -10.299  -0.955  -3.346  0.00  0.00    +0.000 A 
ATOM     25  C   UNL     1      -9.918  -1.031  -4.685  0.00  0.00    +0.001 A 
ATOM     26  C   UNL     1      -9.443   0.106  -5.343  0.00  0.00    +0.013 A 
ENDBRANCH  18  21
ENDBRANCH  12  17
ENDBRANCH   8  11
BRANCH   1  27
ATOM     27  C   UNL     1      -1.514   0.130  -1.668  0.00  0.00    +0.119 C 
BRANCH  27  33
ATOM     28  C   UNL     1      -0.508  -2.058  -1.956  0.00  0.00    +0.113 C 
ATOM     29  C   UNL     1       0.818  -1.814  -1.212  0.00  0.00    +0.175 C 
ATOM     30  O   UNL     1       1.824  -1.289  -2.087  0.00  0.00    -0.377 OA
ATOM     31  C   UNL     1       1.377  -0.099  -2.749  0.00  0.00    +0.175 C 
ATOM     32  C   UNL     1       0.058  -0.333  -3.503  0.00  0.00    +0.113 C 
ATOM     33  N   UNL     1      -1.033  -0.855  -2.647  0.00  0.00    -0.294 NA
ENDBRANCH  27  33
ENDBRANCH   1  27
TORSDOF 5
