REMARK  Name = L1
REMARK  0 active torsions:
REMARK  status: ('A' for Active; 'I' for Inactive)
REMARK                            x       y       z     vdW  Elec       q    Type
REMARK                         _______ _______ _______ _____ _____    ______ ____
ROOT
ATOM      1  C   UNL     1       2.919  -1.518  -0.002  0.00  0.00    +0.001 A 
ATOM      2  C   UNL     1       3.569  -0.288  -0.001  0.00  0.00    +0.001 A 
ATOM      3  C   UNL     1       2.823   0.887  -0.002  0.00  0.00    +0.014 A 
ATOM      4  C   UNL     1       1.421   0.828  -0.003  0.00  0.00    +0.047 A 
ATOM      5  C   UNL     1       0.741  -0.406  -0.003  0.00  0.00    -0.002 A 
ATOM      6  C   UNL     1       1.522  -1.575  -0.003  0.00  0.00    +0.009 A 
ATOM      7  C   UNL     1      -0.731  -0.414  -0.002  0.00  0.00    +0.025 A 
ATOM      8  C   UNL     1      -1.429   0.798  -0.002  0.00  0.00    +0.141 A 
ATOM      9  N   UNL     1      -0.721   1.996  -0.002  0.00  0.00    -0.306 N 
ATOM     10  C   UNL     1       0.643   2.098  -0.002  0.00  0.00    +0.258 A 
ATOM     11  O   UNL     1       1.206   3.188  -0.002  0.00  0.00    -0.267 OA
ATOM     12  N   UNL     1      -2.775   0.913  -0.000  0.00  0.00    -0.237 NA
ATOM     13  C   UNL     1      -3.484  -0.234   0.001  0.00  0.00    +0.113 A 
ATOM     14  C   UNL     1      -2.907  -1.489   0.000  0.00  0.00    +0.020 A 
ATOM     15  C   UNL     1      -1.516  -1.576  -0.001  0.00  0.00    +0.013 A 
ATOM     16  H   UNL     1      -1.266   2.846  -0.001  0.00  0.00    +0.170 HD
ENDROOT
TORSDOF 0
