REMARK  Name = L42
REMARK  5 active torsions:
REMARK  status: ('A' for Active; 'I' for Inactive)
REMARK    1  A    between atoms: C_1  and  C_2
REMARK    2  A    between atoms: C_10  and  S_18
REMARK    3  A    between atoms: S_18  and  C_19
REMARK    4  A    between atoms: C_22  and  N_25
REMARK    5  A    between atoms: C_26  and  C_28
REMARK                            x       y       z     vdW  Elec       q    Type
REMARK                         _______ _______ _______ _____ _____    ______ ____
ROOT
ATOM      1  C   UNL     1       5.889  -0.037  -3.224  0.00  0.00    +0.065 C 
ATOM      2  C   UNL     1       4.921   0.166  -2.127  0.00  0.00    +0.035 A 
ATOM      3  C   UNL     1       4.152   1.252  -1.781  0.00  0.00    +0.068 A 
ATOM      4  C   UNL     1       3.449   0.870  -0.617  0.00  0.00    +0.146 A 
ATOM      5  N   UNL     1       3.721  -0.397  -0.289  0.00  0.00    -0.158 NA
ATOM      6  N   UNL     1       4.638  -0.784  -1.190  0.00  0.00    -0.280 N 
ATOM      7  N   UNL     1       2.618   1.631   0.122  0.00  0.00    -0.282 N 
ATOM      8  C   UNL     1       2.357   3.015   0.079  0.00  0.00    +0.136 A 
ATOM      9  N   UNL     1       2.825   3.710  -0.971  0.00  0.00    -0.206 NA
ATOM     10  C   UNL     1       2.649   5.031  -0.986  0.00  0.00    +0.195 A 
ATOM     11  N   UNL     1       2.032   5.734  -0.032  0.00  0.00    -0.221 NA
ATOM     12  C   UNL     1       1.556   5.048   1.009  0.00  0.00    +0.077 A 
ATOM     13  C   UNL     1       0.907   5.756   2.014  0.00  0.00    +0.028 A 
ATOM     14  C   UNL     1       0.379   5.127   3.143  0.00  0.00    +0.002 A 
ATOM     15  C   UNL     1       0.507   3.754   3.287  0.00  0.00    +0.001 A 
ATOM     16  C   UNL     1       1.160   3.022   2.298  0.00  0.00    +0.013 A 
ATOM     17  C   UNL     1       1.687   3.656   1.139  0.00  0.00    +0.041 A 
ATOM     18  H   UNL     1       5.033  -1.714  -1.102  0.00  0.00    +0.189 HD
ATOM     19  H   UNL     1       2.147   1.127   0.855  0.00  0.00    +0.155 HD
ENDROOT
BRANCH  10  20
ATOM     20  S   UNL     1       3.353   5.897  -2.362  0.00  0.00    -0.050 S 
BRANCH  20  21
ATOM     21  C   UNL     1       1.967   5.945  -3.479  0.00  0.00    +0.016 A 
ATOM     22  C   UNL     1       1.533   7.190  -3.932  0.00  0.00    +0.017 A 
ATOM     23  C   UNL     1       0.463   7.290  -4.826  0.00  0.00    +0.024 A 
ATOM     24  C   UNL     1      -0.193   6.149  -5.291  0.00  0.00    +0.033 A 
ATOM     25  C   UNL     1       0.254   4.897  -4.847  0.00  0.00    +0.024 A 
ATOM     26  C   UNL     1       1.330   4.794  -3.954  0.00  0.00    +0.017 A 
BRANCH  24  27
ATOM     27  N   UNL     1      -1.288   6.193  -6.185  0.00  0.00    -0.285 N 
ATOM     28  C   UNL     1      -1.849   7.327  -6.742  0.00  0.00    +0.220 C 
ATOM     29  O   UNL     1      -1.499   8.488  -6.565  0.00  0.00    -0.275 OA
ATOM     30  H   UNL     1      -1.706   5.306  -6.432  0.00  0.00    +0.155 HD
BRANCH  28  31
ATOM     31  C   UNL     1      -3.021   7.053  -7.629  0.00  0.00    +0.075 C 
ATOM     32  C   UNL     1      -4.368   7.644  -7.279  0.00  0.00    +0.013 C 
ATOM     33  C   UNL     1      -3.614   8.171  -8.462  0.00  0.00    +0.013 C 
ENDBRANCH  28  31
ENDBRANCH  24  27
ENDBRANCH  20  21
ENDBRANCH  10  20
TORSDOF 4
