REMARK  Name = L111
REMARK  8 active torsions:
REMARK  status: ('A' for Active; 'I' for Inactive)
REMARK    1  A    between atoms: C_1  and  N_2
REMARK    2  A    between atoms: N_2  and  C_3
REMARK    3  A    between atoms: N_2  and  C_4
REMARK    4  A    between atoms: C_7  and  C_10
REMARK    5  A    between atoms: C_16  and  N_19
REMARK    6  A    between atoms: N_22  and  C_25
REMARK    7  A    between atoms: C_25  and  C_26
REMARK    8  A    between atoms: N_28  and  C_29
REMARK                            x       y       z     vdW  Elec       q    Type
REMARK                         _______ _______ _______ _____ _____    ______ ____
ROOT
ATOM      1  C   UNL     1       9.873  -5.487  -1.787  0.00  0.00    +0.141 A 
ATOM      2  N   UNL     1       9.534  -5.469  -3.061  0.00  0.00    -0.208 NA
ATOM      3  C   UNL     1       8.459  -6.308  -3.168  0.00  0.00    +0.180 A 
ATOM      4  N   UNL     1       7.796  -6.557  -4.313  0.00  0.00    -0.233 NA
ATOM      5  C   UNL     1       6.785  -7.437  -4.167  0.00  0.00    +0.135 A 
ATOM      6  C   UNL     1       6.401  -8.077  -2.982  0.00  0.00    +0.082 A 
ATOM      7  C   UNL     1       7.100  -7.840  -1.771  0.00  0.00    +0.077 A 
ATOM      8  C   UNL     1       8.136  -6.900  -1.955  0.00  0.00    +0.108 A 
ATOM      9  N   UNL     1       9.034  -6.323  -1.091  0.00  0.00    -0.335 N 
ATOM     10 CL   UNL     1       5.108  -9.218  -3.166  0.00  0.00    -0.080 Cl
ATOM     11  H   UNL     1       9.101  -6.516  -0.105  0.00  0.00    +0.167 HD
ENDROOT
BRANCH   1  15
ATOM     12  C   UNL     1      13.109  -3.276   0.043  0.00  0.00    +0.029 A 
ATOM     13  C   UNL     1      11.989  -3.695   0.777  0.00  0.00    +0.024 A 
ATOM     14  C   UNL     1      10.940  -4.418   0.196  0.00  0.00    +0.013 A 
ATOM     15  C   UNL     1      10.972  -4.758  -1.157  0.00  0.00    +0.017 A 
ATOM     16  C   UNL     1      12.084  -4.372  -1.905  0.00  0.00    +0.013 A 
ATOM     17  C   UNL     1      13.131  -3.650  -1.312  0.00  0.00    +0.024 A 
BRANCH  12  19
ATOM     18  C   UNL     1      14.077  -2.175   2.041  0.00  0.00    +0.129 C 
ATOM     19  N   UNL     1      14.134  -2.543   0.631  0.00  0.00    -0.336 N 
ATOM     20  C   UNL     1      15.154  -1.910  -0.195  0.00  0.00    +0.129 C 
ENDBRANCH  12  19
ENDBRANCH   1  15
BRANCH   7  21
ATOM     21  N   UNL     1       6.864  -8.403  -0.531  0.00  0.00    -0.325 N 
ATOM     22  C   UNL     1       5.537  -8.849  -0.071  0.00  0.00    +0.120 C 
ATOM     23  C   UNL     1       5.516 -10.381   0.185  0.00  0.00    +0.104 C 
ATOM     24  N   UNL     1       6.597 -10.899   1.067  0.00  0.00    -0.291 NA
ATOM     25  C   UNL     1       7.888 -10.427   0.505  0.00  0.00    +0.104 C 
ATOM     26  C   UNL     1       7.997  -8.905   0.275  0.00  0.00    +0.120 C 
BRANCH  24  27
ATOM     27  C   UNL     1       6.386 -10.425   2.452  0.00  0.00    +0.180 C 
BRANCH  27  28
ATOM     28  C   UNL     1       7.518 -10.862   3.374  0.00  0.00    +0.231 C 
ATOM     29  O   UNL     1       8.177 -10.007   3.963  0.00  0.00    -0.274 OA
ATOM     30  N   UNL     1       7.714 -12.236   3.418  0.00  0.00    -0.284 N 
ATOM     31  H   UNL     1       7.278 -12.765   2.676  0.00  0.00    +0.155 HD
BRANCH  30  32
ATOM     32  C   UNL     1       8.653 -12.885   4.248  0.00  0.00    +0.033 A 
ATOM     33  C   UNL     1       9.239 -12.245   5.344  0.00  0.00    +0.023 A 
ATOM     34  C   UNL     1      10.197 -12.884   6.128  0.00  0.00    +0.002 A 
ATOM     35  C   UNL     1      10.573 -14.184   5.831  0.00  0.00    +0.000 A 
ATOM     36  C   UNL     1       9.974 -14.855   4.762  0.00  0.00    +0.002 A 
ATOM     37  C   UNL     1       9.014 -14.211   3.974  0.00  0.00    +0.023 A 
ENDBRANCH  30  32
ENDBRANCH  27  28
ENDBRANCH  24  27
ENDBRANCH   7  21
TORSDOF 6
