REMARK  Name = L88
REMARK  7 active torsions:
REMARK  status: ('A' for Active; 'I' for Inactive)
REMARK    1  A    between atoms: C_1  and  C_2
REMARK    2  A    between atoms: C_4  and  C_7
REMARK    3  A    between atoms: C_7  and  N_8
REMARK    4  A    between atoms: N_11  and  C_14
REMARK    5  A    between atoms: C_22  and  C_24
REMARK    6  A    between atoms: C_27  and  C_30
REMARK    7  A    between atoms: C_30  and  N_31
REMARK                            x       y       z     vdW  Elec       q    Type
REMARK                         _______ _______ _______ _____ _____    ______ ____
ROOT
ATOM      1  C   UNL     1      -1.038  -6.987   0.522  0.00  0.00    +0.073 A 
ATOM      2  C   UNL     1      -0.530  -7.981  -0.334  0.00  0.00    +0.108 A 
ATOM      3  C   UNL     1      -0.435  -9.330  -0.009  0.00  0.00    +0.180 A 
ATOM      4  N   UNL     1      -0.787  -9.826   1.190  0.00  0.00    -0.233 NA
ATOM      5  C   UNL     1      -1.270  -8.902   2.038  0.00  0.00    +0.130 A 
ATOM      6  C   UNL     1      -1.431  -7.536   1.770  0.00  0.00    +0.059 A 
ATOM      7 BR   UNL     1      -2.312  -6.566   3.159  0.00  0.00    -0.047 Br
ATOM      8  N   UNL     1       0.054 -10.071  -1.049  0.00  0.00    -0.208 NA
ATOM      9  C   UNL     1       0.266  -9.215  -2.027  0.00  0.00    +0.141 A 
ATOM     10  N   UNL     1       0.027  -7.941  -1.588  0.00  0.00    -0.335 N 
ATOM     11  H   UNL     1       0.216  -7.105  -2.121  0.00  0.00    +0.167 HD
ENDROOT
BRANCH   1  15
ATOM     12  N   UNL     1      -0.517  -3.015  -0.817  0.00  0.00    -0.294 NA
ATOM     13  C   UNL     1      -0.024  -3.438   0.510  0.00  0.00    +0.103 C 
ATOM     14  C   UNL     1      -0.921  -4.550   1.097  0.00  0.00    +0.120 C 
ATOM     15  N   UNL     1      -1.066  -5.662   0.140  0.00  0.00    -0.325 N 
ATOM     16  C   UNL     1      -1.458  -5.226  -1.216  0.00  0.00    +0.120 C 
ATOM     17  C   UNL     1      -0.453  -4.163  -1.730  0.00  0.00    +0.103 C 
BRANCH  12  18
ATOM     18  C   UNL     1       0.125  -1.800  -1.307  0.00  0.00    +0.143 C 
BRANCH  18  22
ATOM     19  C   UNL     1      -2.751   1.636   1.153  0.00  0.00    +0.089 C 
ATOM     20  C   UNL     1      -1.726   0.775   0.542  0.00  0.00    +0.135 A 
ATOM     21  C   UNL     1      -1.772  -0.349  -0.237  0.00  0.00    +0.072 A 
ATOM     22  C   UNL     1      -0.412  -0.645  -0.513  0.00  0.00    +0.098 A 
ATOM     23  N   UNL     1       0.404   0.233   0.085  0.00  0.00    -0.082 NA
ATOM     24  O   UNL     1      -0.427   1.124   0.748  0.00  0.00    -0.360 OA
ENDBRANCH  18  22
ENDBRANCH  12  18
ENDBRANCH   1  15
BRANCH   9  25
ATOM     25  C   UNL     1       0.719  -9.526  -3.381  0.00  0.00    +0.017 A 
ATOM     26  C   UNL     1       0.382  -8.725  -4.481  0.00  0.00    +0.012 A 
ATOM     27  C   UNL     1       0.813  -9.067  -5.766  0.00  0.00    +0.006 A 
ATOM     28  C   UNL     1       1.581 -10.219  -5.978  0.00  0.00    -0.026 A 
ATOM     29  C   UNL     1       1.933 -11.010  -4.876  0.00  0.00    +0.006 A 
ATOM     30  C   UNL     1       1.498 -10.669  -3.593  0.00  0.00    +0.012 A 
BRANCH  28  31
ATOM     31  C   UNL     1       2.035 -10.586  -7.368  0.00  0.00    +0.178 C 
BRANCH  31  32
ATOM     32  N   UNL     1       3.307  -9.959  -7.689  0.00  0.00    -0.267 N 
ATOM     33  C   UNL     1       4.549 -10.512  -7.539  0.00  0.00    +0.108 A 
ATOM     34  C   UNL     1       5.444  -9.547  -7.934  0.00  0.00    +0.041 A 
ATOM     35  C   UNL     1       4.644  -8.464  -8.342  0.00  0.00    +0.134 A 
ATOM     36  N   UNL     1       3.340  -8.715  -8.214  0.00  0.00    -0.179 NA
ENDBRANCH  31  32
ENDBRANCH  28  31
ENDBRANCH   9  25
TORSDOF 6
