REMARK  Name = L133
REMARK  4 active torsions:
REMARK  status: ('A' for Active; 'I' for Inactive)
REMARK    1  A    between atoms: N_3  and  C_16
REMARK    2  A    between atoms: N_6  and  C_7
REMARK    3  A    between atoms: C_7  and  C_8
REMARK    4  A    between atoms: C_24  and  C_26
REMARK                            x       y       z     vdW  Elec       q    Type
REMARK                         _______ _______ _______ _____ _____    ______ ____
ROOT
ATOM      1  C   UNL     1      -2.589   0.120   0.974  0.00  0.00    +0.073 A 
ATOM      2  C   UNL     1      -3.551   1.128   0.750  0.00  0.00    +0.108 A 
ATOM      3  C   UNL     1      -4.726   1.264   1.480  0.00  0.00    +0.180 A 
ATOM      4  N   UNL     1      -5.091   0.426   2.468  0.00  0.00    -0.233 NA
ATOM      5  C   UNL     1      -4.191  -0.547   2.707  0.00  0.00    +0.130 A 
ATOM      6  C   UNL     1      -2.976  -0.736   2.037  0.00  0.00    +0.059 A 
ATOM      7 BR   UNL     1      -1.869  -2.101   2.779  0.00  0.00    -0.047 Br
ATOM      8  N   UNL     1      -5.452   2.352   1.083  0.00  0.00    -0.208 NA
ATOM      9  C   UNL     1      -4.753   2.915   0.116  0.00  0.00    +0.141 A 
ATOM     10  N   UNL     1      -3.646   2.149  -0.163  0.00  0.00    -0.335 N 
ATOM     11  H   UNL     1      -2.998   2.324  -0.914  0.00  0.00    +0.167 HD
ENDROOT
BRANCH   1  14
ATOM     12  C   UNL     1       0.670  -1.274   0.171  0.00  0.00    +0.104 C 
ATOM     13  C   UNL     1      -0.831  -1.211  -0.229  0.00  0.00    +0.120 C 
ATOM     14  N   UNL     1      -1.416   0.049   0.252  0.00  0.00    -0.325 N 
ATOM     15  C   UNL     1      -0.686   1.255  -0.178  0.00  0.00    +0.120 C 
ATOM     16  C   UNL     1       0.815   1.125   0.172  0.00  0.00    +0.104 C 
ATOM     17  N   UNL     1       1.489  -0.119  -0.295  0.00  0.00    -0.291 NA
BRANCH  17  18
ATOM     18  C   UNL     1       1.623  -0.166  -1.767  0.00  0.00    +0.181 C 
BRANCH  18  19
ATOM     19  C   UNL     1       2.376   1.042  -2.304  0.00  0.00    +0.233 C 
ATOM     20  O   UNL     1       1.771   1.887  -2.963  0.00  0.00    -0.274 OA
ATOM     21  N   UNL     1       3.714   1.048  -1.977  0.00  0.00    -0.264 N 
ATOM     22  C   UNL     1       4.531   2.073  -2.362  0.00  0.00    +0.164 A 
ATOM     23  N   UNL     1       4.206   3.200  -2.940  0.00  0.00    -0.233 NA
ATOM     24  C   UNL     1       5.345   3.920  -3.218  0.00  0.00    +0.120 A 
ATOM     25  C   UNL     1       6.530   3.315  -2.855  0.00  0.00    +0.068 A 
ATOM     26  S   UNL     1       6.194   1.823  -2.069  0.00  0.00    -0.061 S 
ATOM     27  H   UNL     1       4.112   0.294  -1.438  0.00  0.00    +0.157 HD
ENDBRANCH  18  19
ENDBRANCH  17  18
ENDBRANCH   1  14
BRANCH   9  28
ATOM     28  C   UNL     1      -5.088   4.148  -0.599  0.00  0.00    +0.017 A 
ATOM     29  C   UNL     1      -4.098   4.947  -1.195  0.00  0.00    +0.011 A 
ATOM     30  C   UNL     1      -4.443   6.126  -1.861  0.00  0.00    +0.001 A 
ATOM     31  C   UNL     1      -5.776   6.521  -1.937  0.00  0.00    +0.000 A 
ATOM     32  C   UNL     1      -6.767   5.742  -1.342  0.00  0.00    +0.001 A 
ATOM     33  C   UNL     1      -6.426   4.564  -0.674  0.00  0.00    +0.011 A 
ENDBRANCH   9  28
TORSDOF 4
