REMARK  Name = L39
REMARK  9 active torsions:
REMARK  status: ('A' for Active; 'I' for Inactive)
REMARK    1  A    between atoms: C_1  and  C_2
REMARK    2  A    between atoms: C_2  and  C_3
REMARK    3  A    between atoms: N_5  and  C_6
REMARK    4  A    between atoms: C_9  and  S_12
REMARK    5  A    between atoms: S_12  and  C_13
REMARK    6  A    between atoms: C_15  and  N_27
REMARK    7  A    between atoms: N_22  and  C_25
REMARK    8  A    between atoms: C_25  and  C_26
REMARK    9  A    between atoms: C_31  and  C_33
REMARK                            x       y       z     vdW  Elec       q    Type
REMARK                         _______ _______ _______ _____ _____    ______ ____
ROOT
ATOM      1  C   UNL     1       5.315   4.352  -7.343  0.00  0.00    +0.196 A 
ATOM      2  N   UNL     1       4.510   4.349  -8.425  0.00  0.00    -0.206 NA
ATOM      3  C   UNL     1       3.748   5.439  -8.599  0.00  0.00    +0.130 A 
ATOM      4  C   UNL     1       3.859   6.526  -7.755  0.00  0.00    +0.087 A 
ATOM      5  C   UNL     1       4.716   6.457  -6.678  0.00  0.00    +0.128 A 
ATOM      6  N   UNL     1       5.438   5.353  -6.461  0.00  0.00    -0.207 NA
ATOM      7  N   UNL     1       4.795   7.508  -5.785  0.00  0.00    -0.313 N 
ATOM      8  C   UNL     1       5.241   7.248  -4.414  0.00  0.00    +0.122 C 
ATOM      9  C   UNL     1       6.519   8.040  -4.064  0.00  0.00    +0.103 C 
ATOM     10  N   UNL     1       6.472   9.490  -4.395  0.00  0.00    -0.300 NA
ATOM     11  C   UNL     1       6.150   9.592  -5.838  0.00  0.00    +0.103 C 
ATOM     12  C   UNL     1       4.838   8.896  -6.264  0.00  0.00    +0.122 C 
ENDROOT
BRANCH   3  13
ATOM     13  N   UNL     1       2.833   5.433  -9.671  0.00  0.00    -0.283 N 
ATOM     14  C   UNL     1       1.728   6.194  -9.865  0.00  0.00    +0.146 A 
ATOM     15  N   UNL     1       1.190   7.059  -8.998  0.00  0.00    -0.158 NA
ATOM     16  N   UNL     1       0.116   7.553  -9.618  0.00  0.00    -0.280 N 
ATOM     17  C   UNL     1      -0.052   7.074 -10.884  0.00  0.00    +0.035 A 
ATOM     18  C   UNL     1       0.965   6.158 -11.060  0.00  0.00    +0.068 A 
ATOM     19  C   UNL     1      -1.146   7.542 -11.763  0.00  0.00    +0.065 C 
ATOM     20  H   UNL     1       2.973   4.597 -10.225  0.00  0.00    +0.155 HD
ATOM     21  H   UNL     1      -0.453   8.229  -9.120  0.00  0.00    +0.189 HD
ENDBRANCH   3  13
BRANCH  10  22
ATOM     22  C   UNL     1       5.505  10.187  -3.530  0.00  0.00    +0.081 C 
ATOM     23  C   UNL     1       5.439  11.691  -3.768  0.00  0.00    +0.020 C 
ENDBRANCH  10  22
BRANCH   1  24
ATOM     24  S   UNL     1       6.312   2.905  -7.024  0.00  0.00    -0.050 S 
BRANCH  24  28
ATOM     25  C   UNL     1       3.526   0.604  -4.159  0.00  0.00    +0.033 A 
ATOM     26  C   UNL     1       3.143   0.901  -5.468  0.00  0.00    +0.024 A 
ATOM     27  C   UNL     1       3.992   1.596  -6.331  0.00  0.00    +0.017 A 
ATOM     28  C   UNL     1       5.244   2.026  -5.898  0.00  0.00    +0.016 A 
ATOM     29  C   UNL     1       5.645   1.725  -4.590  0.00  0.00    +0.017 A 
ATOM     30  C   UNL     1       4.785   1.029  -3.721  0.00  0.00    +0.024 A 
BRANCH  25  33
ATOM     31  C   UNL     1       1.527  -0.772  -3.614  0.00  0.00    +0.217 C 
ATOM     32  O   UNL     1       1.157  -1.001  -4.758  0.00  0.00    -0.275 OA
ATOM     33  N   UNL     1       2.679  -0.084  -3.256  0.00  0.00    -0.286 N 
ATOM     34  H   UNL     1       2.981  -0.138  -2.293  0.00  0.00    +0.155 HD
BRANCH  31  36
ATOM     35  C   UNL     1      -0.508  -2.029  -2.885  0.00  0.00    +0.013 C 
ATOM     36  C   UNL     1       0.715  -1.249  -2.420  0.00  0.00    +0.093 C 
ENDBRANCH  31  36
ENDBRANCH  25  33
ENDBRANCH  24  28
ENDBRANCH   1  24
TORSDOF 6
