REMARK  Name = L44
REMARK  5 active torsions:
REMARK  status: ('A' for Active; 'I' for Inactive)
REMARK    1  A    between atoms: C_1  and  C_2
REMARK    2  A    between atoms: N_4  and  C_5
REMARK    3  A    between atoms: C_8  and  S_11
REMARK    4  A    between atoms: S_11  and  C_12
REMARK    5  A    between atoms: C_26  and  C_28
REMARK                            x       y       z     vdW  Elec       q    Type
REMARK                         _______ _______ _______ _____ _____    ______ ____
ROOT
ATOM      1  C   UNL     1       9.998   0.822  -0.120  0.00  0.00    +0.195 A 
ATOM      2  N   UNL     1      11.058   0.583  -0.910  0.00  0.00    -0.221 NA
ATOM      3  C   UNL     1      11.541   1.619  -1.615  0.00  0.00    +0.077 A 
ATOM      4  C   UNL     1      12.645   1.454  -2.448  0.00  0.00    +0.028 A 
ATOM      5  C   UNL     1      13.143   2.496  -3.242  0.00  0.00    +0.002 A 
ATOM      6  C   UNL     1      12.533   3.743  -3.212  0.00  0.00    +0.001 A 
ATOM      7  C   UNL     1      11.482   3.958  -2.328  0.00  0.00    +0.013 A 
ATOM      8  C   UNL     1      11.005   2.905  -1.511  0.00  0.00    +0.041 A 
ATOM      9  C   UNL     1       9.998   3.053  -0.557  0.00  0.00    +0.136 A 
ATOM     10  N   UNL     1       9.438   2.013   0.062  0.00  0.00    -0.206 NA
ATOM     11  N   UNL     1       9.785   4.318   0.044  0.00  0.00    -0.282 N 
ATOM     12  C   UNL     1       8.588   4.705   0.532  0.00  0.00    +0.146 A 
ATOM     13  N   UNL     1       8.386   5.202   1.752  0.00  0.00    -0.158 NA
ATOM     14  N   UNL     1       7.072   5.500   1.758  0.00  0.00    -0.280 N 
ATOM     15  C   UNL     1       6.472   5.302   0.550  0.00  0.00    +0.041 A 
ATOM     16  C   UNL     1       7.418   4.710  -0.246  0.00  0.00    +0.068 A 
ATOM     17  H   UNL     1      10.489   4.370   0.779  0.00  0.00    +0.155 HD
ATOM     18  H   UNL     1       6.667   5.869   2.611  0.00  0.00    +0.189 HD
ENDROOT
BRANCH  15  19
ATOM     19  C   UNL     1       5.068   5.698   0.159  0.00  0.00    +0.037 C 
ATOM     20  C   UNL     1       4.843   6.105  -1.286  0.00  0.00    +0.010 C 
ATOM     21  C   UNL     1       4.273   4.822  -0.786  0.00  0.00    +0.010 C 
ENDBRANCH  15  19
BRANCH   1  22
ATOM     22  S   UNL     1       9.454  -0.387   1.039  0.00  0.00    -0.050 S 
BRANCH  22  26
ATOM     23  C   UNL     1       7.609  -3.863  -1.301  0.00  0.00    +0.033 A 
ATOM     24  C   UNL     1       8.073  -3.991   0.007  0.00  0.00    +0.024 A 
ATOM     25  C   UNL     1       8.586  -2.893   0.683  0.00  0.00    +0.017 A 
ATOM     26  C   UNL     1       8.660  -1.639   0.075  0.00  0.00    +0.016 A 
ATOM     27  C   UNL     1       8.121  -1.480  -1.205  0.00  0.00    +0.017 A 
ATOM     28  C   UNL     1       7.614  -2.593  -1.895  0.00  0.00    +0.024 A 
BRANCH  23  32
ATOM     29  C   UNL     1       6.780  -7.243  -2.725  0.00  0.00    +0.109 C 
ATOM     30  C   UNL     1       7.010  -6.261  -1.609  0.00  0.00    +0.214 C 
ATOM     31  O   UNL     1       7.049  -6.647  -0.445  0.00  0.00    -0.276 OA
ATOM     32  N   UNL     1       7.187  -4.966  -2.067  0.00  0.00    -0.286 N 
ATOM     33  H   UNL     1       7.012  -4.791  -3.047  0.00  0.00    +0.155 HD
ENDBRANCH  23  32
ENDBRANCH  22  26
ENDBRANCH   1  22
TORSDOF 4
