REMARK  Name = L8
REMARK  5 active torsions:
REMARK  status: ('A' for Active; 'I' for Inactive)
REMARK    1  A    between atoms: C_8  and  N_16
REMARK    2  A    between atoms: N_16  and  C_17
REMARK    3  A    between atoms: C_20  and  N_23
REMARK    4  A    between atoms: C_24  and  C_26
REMARK    5  A    between atoms: C_27  and  C_33
REMARK                            x       y       z     vdW  Elec       q    Type
REMARK                         _______ _______ _______ _____ _____    ______ ____
ROOT
ATOM      1  C   UNL     1      -1.673  -4.155   0.005  0.00  0.00    +0.031 A 
ATOM      2  C   UNL     1      -2.636  -4.393  -0.973  0.00  0.00    +0.025 A 
ATOM      3  C   UNL     1      -3.443  -5.528  -0.903  0.00  0.00    +0.025 A 
ATOM      4  C   UNL     1      -3.287  -6.436   0.141  0.00  0.00    +0.034 A 
ATOM      5  C   UNL     1      -2.259  -6.250   1.068  0.00  0.00    +0.025 A 
ATOM      6  C   UNL     1      -1.434  -5.132   0.980  0.00  0.00    +0.025 A 
ENDROOT
BRANCH   4   7
ATOM      7  N   UNL     1      -4.142  -7.537   0.345  0.00  0.00    -0.281 N 
ATOM      8  C   UNL     1      -5.138  -7.968  -0.509  0.00  0.00    +0.249 C 
ATOM      9  O   UNL     1      -5.403  -7.552  -1.628  0.00  0.00    -0.270 OA
ATOM     10  H   UNL     1      -4.011  -8.034   1.219  0.00  0.00    +0.155 HD
BRANCH   8  11
ATOM     11  C   UNL     1      -5.922  -9.120  -0.011  0.00  0.00    +0.049 A 
ATOM     12  C   UNL     1      -7.318  -9.192  -0.169  0.00  0.00    +0.070 A 
ATOM     13  C   UNL     1      -7.963 -10.387   0.208  0.00  0.00    +0.051 A 
ATOM     14  C   UNL     1      -7.243 -11.446   0.750  0.00  0.00    +0.124 A 
ATOM     15  C   UNL     1      -5.873 -11.358   0.935  0.00  0.00    +0.039 A 
ATOM     16  C   UNL     1      -5.207 -10.202   0.544  0.00  0.00    +0.016 A 
ATOM     17  F   UNL     1      -7.882 -12.572   1.088  0.00  0.00    -0.205 F 
BRANCH  12  18
ATOM     18  C   UNL     1      -8.190  -8.084  -0.715  0.00  0.00    +0.418 C 
ATOM     19  F   UNL     1      -7.631  -6.854  -0.825  0.00  0.00    -0.166 F 
ATOM     20  F   UNL     1      -8.716  -8.394  -1.932  0.00  0.00    -0.166 F 
ATOM     21  F   UNL     1      -9.274  -7.888   0.100  0.00  0.00    -0.166 F 
ENDBRANCH  12  18
ENDBRANCH   8  11
ENDBRANCH   4   7
BRANCH   1  22
ATOM     22  N   UNL     1      -0.847  -3.012  -0.112  0.00  0.00    -0.314 N 
ATOM     23  H   UNL     1      -0.056  -3.323  -0.671  0.00  0.00    +0.152 HD
BRANCH  22  31
ATOM     24  C   UNL     1       2.171  -1.371  -2.795  0.00  0.00    +0.001 A 
ATOM     25  C   UNL     1       3.322  -0.617  -2.638  0.00  0.00    +0.001 A 
ATOM     26  C   UNL     1       3.596  -0.059  -1.399  0.00  0.00    +0.014 A 
ATOM     27  C   UNL     1       2.745  -0.304  -0.305  0.00  0.00    +0.047 A 
ATOM     28  C   UNL     1       1.583  -1.102  -0.412  0.00  0.00    -0.000 A 
ATOM     29  C   UNL     1       1.300  -1.572  -1.712  0.00  0.00    +0.009 A 
ATOM     30  C   UNL     1       0.769  -1.363   0.823  0.00  0.00    +0.046 A 
ATOM     31  C   UNL     1      -0.345  -2.224   0.968  0.00  0.00    +0.044 A 
ATOM     32  C   UNL     1      -1.045  -2.246   2.195  0.00  0.00    +0.043 A 
ATOM     33  C   UNL     1      -0.544  -1.572   3.285  0.00  0.00    +0.115 A 
ATOM     34  N   UNL     1       0.558  -0.821   3.223  0.00  0.00    -0.237 NA
ATOM     35  C   UNL     1       1.161  -0.721   2.017  0.00  0.00    +0.143 A 
ATOM     36  N   UNL     1       2.282   0.092   2.041  0.00  0.00    -0.306 N 
ATOM     37  C   UNL     1       3.099   0.337   0.988  0.00  0.00    +0.258 A 
ATOM     38  O   UNL     1       4.080   1.061   1.095  0.00  0.00    -0.267 OA
ATOM     39  H   UNL     1       2.506   0.520   2.929  0.00  0.00    +0.170 HD
ENDBRANCH  22  31
ENDBRANCH   1  22
TORSDOF 5
