REMARK  Name = L167
REMARK  5 active torsions:
REMARK  status: ('A' for Active; 'I' for Inactive)
REMARK    1  A    between atoms: N_6  and  C_7
REMARK    2  A    between atoms: C_7  and  C_8
REMARK    3  A    between atoms: C_15  and  C_17
REMARK    4  A    between atoms: C_18  and  N_22
REMARK    5  A    between atoms: N_25  and  C_26
REMARK                            x       y       z     vdW  Elec       q    Type
REMARK                         _______ _______ _______ _____ _____    ______ ____
ROOT
ATOM      1  C   UNL     1      -6.096   4.810  -4.904  0.00  0.00    +0.122 A 
ATOM      2  C   UNL     1      -7.406   4.414  -5.056  0.00  0.00    +0.083 A 
ATOM      3  C   UNL     1      -8.011   5.472  -5.776  0.00  0.00    +0.158 A 
ATOM      4  N   UNL     1      -7.169   6.486  -6.002  0.00  0.00    -0.180 NA
ATOM      5  N   UNL     1      -6.015   6.061  -5.452  0.00  0.00    -0.272 N 
ATOM      6  H   UNL     1      -5.192   6.651  -5.514  0.00  0.00    +0.189 HD
ENDROOT
BRANCH   1  14
ATOM      7  C   UNL     1      -2.086   1.383  -2.262  0.00  0.00    -0.031 A 
ATOM      8  C   UNL     1      -3.231   1.298  -3.071  0.00  0.00    +0.032 A 
ATOM      9  C   UNL     1      -3.737   2.496  -3.564  0.00  0.00    +0.067 A 
ATOM     10  C   UNL     1      -3.163   3.740  -3.315  0.00  0.00    +0.090 A 
ATOM     11  C   UNL     1      -1.993   3.813  -2.551  0.00  0.00    +0.030 A 
ATOM     12  C   UNL     1      -1.472   2.627  -2.021  0.00  0.00    +0.007 A 
ATOM     13  N   UNL     1      -3.911   4.751  -3.869  0.00  0.00    -0.226 NA
ATOM     14  C   UNL     1      -4.960   4.149  -4.379  0.00  0.00    +0.159 A 
ATOM     15  N   UNL     1      -4.820   2.787  -4.345  0.00  0.00    -0.337 N 
ATOM     16  H   UNL     1      -5.445   2.117  -4.769  0.00  0.00    +0.167 HD
BRANCH   7  17
ATOM     17  C   UNL     1      -1.514   0.126  -1.639  0.00  0.00    +0.119 C 
BRANCH  17  23
ATOM     18  C   UNL     1      -0.500  -2.058  -1.934  0.00  0.00    +0.113 C 
ATOM     19  C   UNL     1       0.821  -1.802  -1.183  0.00  0.00    +0.175 C 
ATOM     20  O   UNL     1       1.826  -1.271  -2.054  0.00  0.00    -0.377 OA
ATOM     21  C   UNL     1       1.374  -0.085  -2.722  0.00  0.00    +0.175 C 
ATOM     22  C   UNL     1       0.059  -0.331  -3.479  0.00  0.00    +0.113 C 
ATOM     23  N   UNL     1      -1.030  -0.858  -2.623  0.00  0.00    -0.294 NA
ENDBRANCH  17  23
ENDBRANCH   7  17
ENDBRANCH   1  14
BRANCH   2  24
ATOM     24  N   UNL     1      -7.960   3.227  -4.592  0.00  0.00    -0.266 N 
ATOM     25  C   UNL     1      -8.845   2.519  -5.387  0.00  0.00    +0.308 C 
ATOM     26  O   UNL     1      -9.122   2.843  -6.536  0.00  0.00    -0.252 OA
ATOM     27  N   UNL     1      -9.319   1.393  -4.736  0.00  0.00    -0.269 N 
ATOM     28  H   UNL     1      -7.450   2.705  -3.902  0.00  0.00    +0.156 HD
ATOM     29  H   UNL     1      -9.384   1.461  -3.730  0.00  0.00    +0.156 HD
BRANCH  27  30
ATOM     30  C   UNL     1     -10.072   0.370  -5.357  0.00  0.00    +0.035 A 
ATOM     31  C   UNL     1     -10.030   0.132  -6.734  0.00  0.00    +0.023 A 
ATOM     32  C   UNL     1     -10.814  -0.871  -7.308  0.00  0.00    +0.002 A 
ATOM     33  C   UNL     1     -11.640  -1.652  -6.507  0.00  0.00    +0.000 A 
ATOM     34  C   UNL     1     -11.667  -1.443  -5.129  0.00  0.00    +0.002 A 
ATOM     35  C   UNL     1     -10.877  -0.443  -4.551  0.00  0.00    +0.023 A 
ENDBRANCH  27  30
ENDBRANCH   2  24
TORSDOF 5
