REMARK  Name = L174
REMARK  4 active torsions:
REMARK  status: ('A' for Active; 'I' for Inactive)
REMARK    1  A    between atoms: C_3  and  C_25
REMARK    2  A    between atoms: C_5  and  N_7
REMARK    3  A    between atoms: N_14  and  C_15
REMARK    4  A    between atoms: C_19  and  C_21
REMARK                            x       y       z     vdW  Elec       q    Type
REMARK                         _______ _______ _______ _____ _____    ______ ____
ROOT
ATOM      1  N   UNL     1      -1.698  -2.252   0.008  0.00  0.00    -0.299 N 
ATOM      2  C   UNL     1      -1.209  -3.572   0.148  0.00  0.00    +0.128 A 
ATOM      3  N   UNL     1      -1.397  -4.460  -0.847  0.00  0.00    -0.199 NA
ATOM      4  C   UNL     1      -0.941  -5.702  -0.672  0.00  0.00    +0.221 A 
ATOM      5  N   UNL     1      -0.266  -6.093   0.421  0.00  0.00    -0.223 NA
ATOM      6  C   UNL     1      -0.059  -5.180   1.378  0.00  0.00    +0.118 A 
ATOM      7  C   UNL     1      -0.540  -3.901   1.306  0.00  0.00    +0.063 A 
ATOM      8  N   UNL     1      -1.165  -6.606  -1.707  0.00  0.00    -0.284 N 
ATOM      9  H   UNL     1      -2.423  -2.077   0.696  0.00  0.00    +0.154 HD
ATOM     10  H   UNL     1      -1.560  -6.151  -2.517  0.00  0.00    +0.155 HD
ENDROOT
BRANCH   1  15
ATOM     11  C   UNL     1      -1.241  -1.156  -3.527  0.00  0.00    +0.002 A 
ATOM     12  C   UNL     1      -2.185  -0.141  -3.614  0.00  0.00    +0.012 A 
ATOM     13  C   UNL     1      -2.980   0.188  -2.506  0.00  0.00    +0.057 A 
ATOM     14  C   UNL     1      -2.824  -0.538  -1.310  0.00  0.00    +0.035 A 
ATOM     15  C   UNL     1      -1.900  -1.584  -1.217  0.00  0.00    +0.033 A 
ATOM     16  C   UNL     1      -1.092  -1.858  -2.330  0.00  0.00    +0.023 A 
BRANCH  13  17
ATOM     17  C   UNL     1      -3.982   1.309  -2.584  0.00  0.00    +0.417 C 
ATOM     18  F   UNL     1      -3.987   1.956  -3.784  0.00  0.00    -0.166 F 
ATOM     19  F   UNL     1      -5.260   0.882  -2.386  0.00  0.00    -0.166 F 
ATOM     20  F   UNL     1      -3.760   2.270  -1.645  0.00  0.00    -0.166 F 
ENDBRANCH  13  17
ENDBRANCH   1  15
BRANCH   8  21
ATOM     21  C   UNL     1      -1.300  -7.996  -1.625  0.00  0.00    +0.034 A 
ATOM     22  C   UNL     1      -0.951  -8.793  -2.719  0.00  0.00    +0.023 A 
ATOM     23  C   UNL     1      -0.964 -10.186  -2.619  0.00  0.00    +0.002 A 
ATOM     24  C   UNL     1      -1.350 -10.802  -1.426  0.00  0.00    +0.012 A 
ATOM     25  C   UNL     1      -1.731 -10.027  -0.325  0.00  0.00    +0.057 A 
ATOM     26  C   UNL     1      -1.697  -8.631  -0.440  0.00  0.00    +0.035 A 
BRANCH  25  27
ATOM     27  C   UNL     1      -2.163 -10.648   0.978  0.00  0.00    +0.417 C 
ATOM     28  F   UNL     1      -2.125 -12.011   0.972  0.00  0.00    -0.166 F 
ATOM     29  F   UNL     1      -1.391 -10.259   2.030  0.00  0.00    -0.166 F 
ATOM     30  F   UNL     1      -3.442 -10.315   1.313  0.00  0.00    -0.166 F 
ENDBRANCH  25  27
ENDBRANCH   8  21
TORSDOF 4
