REMARK  Name = L114
REMARK  7 active torsions:
REMARK  status: ('A' for Active; 'I' for Inactive)
REMARK    1  A    between atoms: C_1  and  N_2
REMARK    2  A    between atoms: N_2  and  C_3
REMARK    3  A    between atoms: N_2  and  C_4
REMARK    4  A    between atoms: C_7  and  C_10
REMARK    5  A    between atoms: C_16  and  N_19
REMARK    6  A    between atoms: N_22  and  C_25
REMARK    7  A    between atoms: C_25  and  C_26
REMARK                            x       y       z     vdW  Elec       q    Type
REMARK                         _______ _______ _______ _____ _____    ______ ____
ROOT
ATOM      1  C   UNL     1       5.332  -3.586  -3.408  0.00  0.00    +0.141 A 
ATOM      2  N   UNL     1       5.985  -3.279  -4.511  0.00  0.00    -0.208 NA
ATOM      3  C   UNL     1       6.583  -4.446  -4.919  0.00  0.00    +0.180 A 
ATOM      4  N   UNL     1       7.332  -4.572  -6.031  0.00  0.00    -0.233 NA
ATOM      5  C   UNL     1       7.853  -5.806  -6.189  0.00  0.00    +0.130 A 
ATOM      6  C   UNL     1       7.687  -6.895  -5.322  0.00  0.00    +0.059 A 
ATOM      7  C   UNL     1       6.882  -6.783  -4.159  0.00  0.00    +0.073 A 
ATOM      8  C   UNL     1       6.345  -5.490  -4.035  0.00  0.00    +0.108 A 
ATOM      9  N   UNL     1       5.486  -4.921  -3.133  0.00  0.00    -0.335 N 
ATOM     10 BR   UNL     1       8.716  -8.442  -5.756  0.00  0.00    -0.047 Br
ATOM     11  H   UNL     1       5.073  -5.388  -2.345  0.00  0.00    +0.167 HD
ENDROOT
BRANCH   1  15
ATOM     12  C   UNL     1       3.113  -0.913  -0.827  0.00  0.00    +0.029 A 
ATOM     13  C   UNL     1       2.864  -2.294  -0.852  0.00  0.00    +0.024 A 
ATOM     14  C   UNL     1       3.567  -3.166  -1.693  0.00  0.00    +0.013 A 
ATOM     15  C   UNL     1       4.570  -2.689  -2.541  0.00  0.00    +0.017 A 
ATOM     16  C   UNL     1       4.848  -1.324  -2.525  0.00  0.00    +0.013 A 
ATOM     17  C   UNL     1       4.135  -0.459  -1.679  0.00  0.00    +0.024 A 
BRANCH  12  19
ATOM     18  C   UNL     1       1.302  -0.550   0.823  0.00  0.00    +0.129 C 
ATOM     19  N   UNL     1       2.401  -0.052   0.005  0.00  0.00    -0.336 N 
ATOM     20  C   UNL     1       2.493   1.390  -0.188  0.00  0.00    +0.129 C 
ENDBRANCH  12  19
ENDBRANCH   1  15
BRANCH   7  21
ATOM     21  N   UNL     1       6.636  -7.785  -3.237  0.00  0.00    -0.325 N 
ATOM     22  C   UNL     1       6.516  -7.530  -1.792  0.00  0.00    +0.120 C 
ATOM     23  C   UNL     1       5.126  -7.997  -1.290  0.00  0.00    +0.104 C 
ATOM     24  N   UNL     1       4.810  -9.425  -1.570  0.00  0.00    -0.291 NA
ATOM     25  C   UNL     1       4.991  -9.650  -3.026  0.00  0.00    +0.104 C 
ATOM     26  C   UNL     1       6.336  -9.168  -3.637  0.00  0.00    +0.120 C 
BRANCH  24  27
ATOM     27  C   UNL     1       5.685 -10.333  -0.801  0.00  0.00    +0.181 C 
BRANCH  27  28
ATOM     28  C   UNL     1       5.489 -10.120   0.706  0.00  0.00    +0.233 C 
ATOM     29  O   UNL     1       6.374  -9.587   1.369  0.00  0.00    -0.274 OA
ATOM     30  N   UNL     1       4.264 -10.570   1.148  0.00  0.00    -0.264 N 
ATOM     31  C   UNL     1       3.890 -10.458   2.456  0.00  0.00    +0.164 A 
ATOM     32  N   UNL     1       4.487  -9.828   3.435  0.00  0.00    -0.233 NA
ATOM     33  C   UNL     1       3.794 -10.040   4.607  0.00  0.00    +0.120 A 
ATOM     34  C   UNL     1       2.680 -10.846   4.499  0.00  0.00    +0.068 A 
ATOM     35  S   UNL     1       2.452 -11.289   2.855  0.00  0.00    -0.061 S 
ATOM     36  H   UNL     1       3.621 -11.005   0.506  0.00  0.00    +0.157 HD
ENDBRANCH  27  28
ENDBRANCH  24  27
ENDBRANCH   7  21
TORSDOF 5
