REMARK  Name = L142
REMARK  8 active torsions:
REMARK  status: ('A' for Active; 'I' for Inactive)
REMARK    1  A    between atoms: C_1  and  C_2
REMARK    2  A    between atoms: C_2  and  C_3
REMARK    3  A    between atoms: C_2  and  N_9
REMARK    4  A    between atoms: N_12  and  C_15
REMARK    5  A    between atoms: C_23  and  C_25
REMARK    6  A    between atoms: C_28  and  N_31
REMARK    7  A    between atoms: N_31  and  C_32
REMARK    8  A    between atoms: N_31  and  C_33
REMARK                            x       y       z     vdW  Elec       q    Type
REMARK                         _______ _______ _______ _____ _____    ______ ____
ROOT
ATOM      1  C   UNL     1       1.883   5.091   0.445  0.00  0.00    +0.077 A 
ATOM      2  C   UNL     1       0.997   5.715   1.359  0.00  0.00    +0.108 A 
ATOM      3  C   UNL     1       0.574   7.035   1.286  0.00  0.00    +0.180 A 
ATOM      4  N   UNL     1       1.018   7.909   0.361  0.00  0.00    -0.233 NA
ATOM      5  C   UNL     1       1.888   7.365  -0.510  0.00  0.00    +0.135 A 
ATOM      6  C   UNL     1       2.320   6.030  -0.535  0.00  0.00    +0.082 A 
ATOM      7 CL   UNL     1       3.348   5.663  -1.889  0.00  0.00    -0.080 Cl
ATOM      8  N   UNL     1      -0.343   7.343   2.254  0.00  0.00    -0.208 NA
ATOM      9  C   UNL     1      -0.504   6.230   2.947  0.00  0.00    +0.141 A 
ATOM     10  N   UNL     1       0.396   5.291   2.515  0.00  0.00    -0.335 N 
ATOM     11  H   UNL     1       0.561   4.415   2.987  0.00  0.00    +0.167 HD
ENDROOT
BRANCH   1  15
ATOM     12  N   UNL     1       2.908   0.839   0.739  0.00  0.00    -0.293 NA
ATOM     13  C   UNL     1       3.924   1.833   0.369  0.00  0.00    +0.104 C 
ATOM     14  C   UNL     1       3.423   3.207  -0.154  0.00  0.00    +0.120 C 
ATOM     15  N   UNL     1       2.279   3.760   0.612  0.00  0.00    -0.325 N 
ATOM     16  C   UNL     1       1.248   2.753   0.937  0.00  0.00    +0.120 C 
ATOM     17  C   UNL     1       1.889   1.500   1.565  0.00  0.00    +0.104 C 
BRANCH  12  19
ATOM     18  C   UNL     1       1.708   0.647  -1.561  0.00  0.00    +0.029 C 
ATOM     19  C   UNL     1       2.349  -0.007  -0.330  0.00  0.00    +0.084 C 
BRANCH  19  20
ATOM     20  C   UNL     1       3.311  -1.117  -0.765  0.00  0.00    -0.031 A 
ATOM     21  C   UNL     1       4.017  -1.063  -1.980  0.00  0.00    +0.005 A 
ATOM     22  C   UNL     1       4.676  -2.185  -2.474  0.00  0.00    +0.000 A 
ATOM     23  C   UNL     1       4.680  -3.369  -1.742  0.00  0.00    +0.000 A 
ATOM     24  C   UNL     1       4.064  -3.415  -0.493  0.00  0.00    +0.000 A 
ATOM     25  C   UNL     1       3.394  -2.294  -0.001  0.00  0.00    +0.005 A 
ENDBRANCH  19  20
ENDBRANCH  12  19
ENDBRANCH   1  15
BRANCH   9  26
ATOM     26  C   UNL     1      -1.430   5.994   4.049  0.00  0.00    +0.017 A 
ATOM     27  C   UNL     1      -2.035   4.751   4.248  0.00  0.00    +0.013 A 
ATOM     28  C   UNL     1      -2.941   4.556   5.306  0.00  0.00    +0.024 A 
ATOM     29  C   UNL     1      -3.272   5.582   6.209  0.00  0.00    +0.029 A 
ATOM     30  C   UNL     1      -2.635   6.815   5.985  0.00  0.00    +0.024 A 
ATOM     31  C   UNL     1      -1.745   7.028   4.919  0.00  0.00    +0.013 A 
BRANCH  29  32
ATOM     32  N   UNL     1      -4.215   5.396   7.210  0.00  0.00    -0.336 N 
ATOM     33  C   UNL     1      -4.391   4.101   7.859  0.00  0.00    +0.129 C 
ATOM     34  C   UNL     1      -4.763   6.525   7.961  0.00  0.00    +0.129 C 
ENDBRANCH  29  32
ENDBRANCH   9  26
TORSDOF 5
