REMARK  Name = L170
REMARK  4 active torsions:
REMARK  status: ('A' for Active; 'I' for Inactive)
REMARK    1  A    between atoms: C_1  and  C_2
REMARK    2  A    between atoms: N_4  and  C_5
REMARK    3  A    between atoms: C_9  and  N_11
REMARK    4  A    between atoms: N_18  and  C_19
REMARK                            x       y       z     vdW  Elec       q    Type
REMARK                         _______ _______ _______ _____ _____    ______ ____
ROOT
ATOM      1  N   UNL     1       7.296   1.397  -1.591  0.00  0.00    -0.284 N 
ATOM      2  C   UNL     1       6.691   1.381  -2.846  0.00  0.00    +0.221 A 
ATOM      3  N   UNL     1       7.057   0.414  -3.694  0.00  0.00    -0.223 NA
ATOM      4  C   UNL     1       6.415   0.385  -4.875  0.00  0.00    +0.118 A 
ATOM      5  C   UNL     1       5.421   1.269  -5.229  0.00  0.00    +0.063 A 
ATOM      6  C   UNL     1       5.137   2.260  -4.320  0.00  0.00    +0.128 A 
ATOM      7  N   UNL     1       5.770   2.318  -3.141  0.00  0.00    -0.199 NA
ATOM      8  N   UNL     1       4.167   3.228  -4.649  0.00  0.00    -0.298 N 
ATOM      9  H   UNL     1       7.878   0.575  -1.489  0.00  0.00    +0.155 HD
ATOM     10  H   UNL     1       3.261   2.807  -4.831  0.00  0.00    +0.154 HD
ENDROOT
BRANCH   8  11
ATOM     11  C   UNL     1       4.057   4.535  -4.112  0.00  0.00    +0.051 A 
ATOM     12  C   UNL     1       5.206   5.290  -3.831  0.00  0.00    +0.025 A 
ATOM     13  C   UNL     1       5.115   6.626  -3.432  0.00  0.00    +0.002 A 
ATOM     14  C   UNL     1       3.869   7.231  -3.294  0.00  0.00    +0.002 A 
ATOM     15  C   UNL     1       2.711   6.491  -3.529  0.00  0.00    +0.022 A 
ATOM     16  C   UNL     1       2.806   5.155  -3.934  0.00  0.00    +0.062 A 
ATOM     17 CL   UNL     1       1.341   4.270  -4.193  0.00  0.00    -0.082 Cl
ENDBRANCH   8  11
BRANCH   1  22
ATOM     18  C   UNL     1       4.763   2.385   0.977  0.00  0.00    +0.035 A 
ATOM     19  C   UNL     1       5.606   2.902   1.961  0.00  0.00    +0.023 A 
ATOM     20  C   UNL     1       6.991   2.878   1.787  0.00  0.00    +0.004 A 
ATOM     21  C   UNL     1       7.545   2.356   0.618  0.00  0.00    +0.023 A 
ATOM     22  C   UNL     1       6.718   1.863  -0.394  0.00  0.00    +0.035 A 
ATOM     23  C   UNL     1       5.331   1.840  -0.179  0.00  0.00    +0.046 A 
BRANCH  18  27
ATOM     24  C   UNL     1       1.121   2.838   1.830  0.00  0.00    +0.109 C 
ATOM     25  C   UNL     1       2.594   3.120   1.962  0.00  0.00    +0.214 C 
ATOM     26  O   UNL     1       3.005   3.929   2.789  0.00  0.00    -0.276 OA
ATOM     27  N   UNL     1       3.357   2.382   1.075  0.00  0.00    -0.286 N 
ATOM     28  H   UNL     1       2.859   1.888   0.343  0.00  0.00    +0.155 HD
ENDBRANCH  18  27
ENDBRANCH   1  22
TORSDOF 3
