REMARK  Name = L107
REMARK  7 active torsions:
REMARK  status: ('A' for Active; 'I' for Inactive)
REMARK    1  A    between atoms: C_1  and  C_2
REMARK    2  A    between atoms: C_4  and  C_7
REMARK    3  A    between atoms: C_7  and  N_8
REMARK    4  A    between atoms: N_11  and  C_14
REMARK    5  A    between atoms: C_22  and  C_24
REMARK    6  A    between atoms: C_27  and  O_30
REMARK    7  A    between atoms: O_30  and  C_31
REMARK                            x       y       z     vdW  Elec       q    Type
REMARK                         _______ _______ _______ _____ _____    ______ ____
ROOT
ATOM      1  C   UNL     1      -1.078  -7.002   0.516  0.00  0.00    +0.073 A 
ATOM      2  C   UNL     1      -0.886  -7.390   1.854  0.00  0.00    +0.108 A 
ATOM      3  C   UNL     1      -0.710  -8.704   2.280  0.00  0.00    +0.180 A 
ATOM      4  N   UNL     1      -0.773  -9.762   1.457  0.00  0.00    -0.233 NA
ATOM      5  C   UNL     1      -0.983  -9.428   0.167  0.00  0.00    +0.130 A 
ATOM      6  C   UNL     1      -1.112  -8.130  -0.345  0.00  0.00    +0.059 A 
ATOM      7 BR   UNL     1      -1.208  -8.047  -2.249  0.00  0.00    -0.047 Br
ATOM      8  N   UNL     1      -0.469  -8.773   3.628  0.00  0.00    -0.208 NA
ATOM      9  C   UNL     1      -0.552  -7.534   4.069  0.00  0.00    +0.141 A 
ATOM     10  N   UNL     1      -0.864  -6.692   3.033  0.00  0.00    -0.335 N 
ATOM     11  H   UNL     1      -1.003  -5.700   3.120  0.00  0.00    +0.167 HD
ENDROOT
BRANCH   1  15
ATOM     12  N   UNL     1      -1.964  -2.913  -0.125  0.00  0.00    -0.294 NA
ATOM     13  C   UNL     1      -2.858  -3.969  -0.641  0.00  0.00    +0.103 C 
ATOM     14  C   UNL     1      -2.061  -5.245  -0.976  0.00  0.00    +0.120 C 
ATOM     15  N   UNL     1      -1.260  -5.677   0.187  0.00  0.00    -0.325 N 
ATOM     16  C   UNL     1      -0.428  -4.592   0.755  0.00  0.00    +0.120 C 
ATOM     17  C   UNL     1      -1.334  -3.384   1.115  0.00  0.00    +0.103 C 
BRANCH  12  18
ATOM     18  C   UNL     1      -2.614  -1.609  -0.025  0.00  0.00    +0.143 C 
BRANCH  18  22
ATOM     19  C   UNL     1      -2.066  -0.073  -4.869  0.00  0.00    +0.089 C 
ATOM     20  C   UNL     1      -2.470  -0.458  -3.506  0.00  0.00    +0.135 A 
ATOM     21  C   UNL     1      -1.807  -0.998  -2.436  0.00  0.00    +0.072 A 
ATOM     22  C   UNL     1      -2.788  -1.072  -1.415  0.00  0.00    +0.098 A 
ATOM     23  N   UNL     1      -3.977  -0.635  -1.853  0.00  0.00    -0.082 NA
ATOM     24  O   UNL     1      -3.771  -0.251  -3.169  0.00  0.00    -0.360 OA
ENDBRANCH  18  22
ENDBRANCH  12  18
ENDBRANCH   1  15
BRANCH   9  25
ATOM     25  C   UNL     1      -0.343  -7.065   5.439  0.00  0.00    +0.018 A 
ATOM     26  C   UNL     1       0.497  -7.779   6.299  0.00  0.00    +0.015 A 
ATOM     27  C   UNL     1       0.694  -7.350   7.615  0.00  0.00    +0.046 A 
ATOM     28  C   UNL     1       0.069  -6.195   8.089  0.00  0.00    +0.120 A 
ATOM     29  C   UNL     1      -0.769  -5.475   7.239  0.00  0.00    +0.046 A 
ATOM     30  C   UNL     1      -0.972  -5.908   5.923  0.00  0.00    +0.015 A 
BRANCH  28  31
ATOM     31  O   UNL     1       0.300  -5.904   9.402  0.00  0.00    -0.495 OA
ATOM     32  C   UNL     1       0.171  -4.537   9.775  0.00  0.00    +0.277 C 
ENDBRANCH  28  31
ENDBRANCH   9  25
TORSDOF 5
