REMARK  Name = L122
REMARK  7 active torsions:
REMARK  status: ('A' for Active; 'I' for Inactive)
REMARK    1  A    between atoms: C_1  and  C_2
REMARK    2  A    between atoms: C_4  and  C_7
REMARK    3  A    between atoms: C_7  and  N_8
REMARK    4  A    between atoms: N_11  and  C_14
REMARK    5  A    between atoms: C_22  and  C_24
REMARK    6  A    between atoms: C_27  and  C_30
REMARK    7  A    between atoms: C_30  and  N_31
REMARK                            x       y       z     vdW  Elec       q    Type
REMARK                         _______ _______ _______ _____ _____    ______ ____
ROOT
ATOM      1  C   UNL     1      -1.049  -7.001   0.513  0.00  0.00    +0.073 A 
ATOM      2  C   UNL     1      -0.549  -7.997  -0.348  0.00  0.00    +0.108 A 
ATOM      3  C   UNL     1      -0.456  -9.343  -0.027  0.00  0.00    +0.180 A 
ATOM      4  N   UNL     1      -0.803  -9.845   1.174  0.00  0.00    -0.233 NA
ATOM      5  C   UNL     1      -1.282  -8.916   2.025  0.00  0.00    +0.130 A 
ATOM      6  C   UNL     1      -1.442  -7.550   1.759  0.00  0.00    +0.059 A 
ATOM      7 BR   UNL     1      -2.323  -6.577   3.145  0.00  0.00    -0.047 Br
ATOM      8  N   UNL     1       0.024 -10.088  -1.069  0.00  0.00    -0.208 NA
ATOM      9  C   UNL     1       0.235  -9.230  -2.050  0.00  0.00    +0.141 A 
ATOM     10  N   UNL     1       0.004  -7.954  -1.604  0.00  0.00    -0.335 N 
ATOM     11  H   UNL     1       0.189  -7.115  -2.131  0.00  0.00    +0.167 HD
ENDROOT
BRANCH   1  15
ATOM     12  N   UNL     1      -0.625  -2.995  -0.817  0.00  0.00    -0.294 NA
ATOM     13  C   UNL     1      -0.078  -3.422   0.489  0.00  0.00    +0.103 C 
ATOM     14  C   UNL     1      -0.918  -4.569   1.094  0.00  0.00    +0.120 C 
ATOM     15  N   UNL     1      -1.054  -5.676   0.130  0.00  0.00    -0.325 N 
ATOM     16  C   UNL     1      -1.523  -5.240  -1.202  0.00  0.00    +0.120 C 
ATOM     17  C   UNL     1      -0.578  -4.136  -1.745  0.00  0.00    +0.103 C 
BRANCH  12  18
ATOM     18  C   UNL     1       0.003  -1.777  -1.320  0.00  0.00    +0.143 C 
BRANCH  18  22
ATOM     19  C   UNL     1      -2.828   1.627   1.232  0.00  0.00    +0.089 C 
ATOM     20  C   UNL     1      -1.814   0.785   0.578  0.00  0.00    +0.135 A 
ATOM     21  C   UNL     1      -1.874  -0.337  -0.206  0.00  0.00    +0.072 A 
ATOM     22  C   UNL     1      -0.520  -0.623  -0.517  0.00  0.00    +0.098 A 
ATOM     23  N   UNL     1       0.306   0.262   0.057  0.00  0.00    -0.082 NA
ATOM     24  O   UNL     1      -0.513   1.145   0.745  0.00  0.00    -0.360 OA
ENDBRANCH  18  22
ENDBRANCH  12  18
ENDBRANCH   1  15
BRANCH   9  25
ATOM     25  C   UNL     1       0.688  -9.533  -3.406  0.00  0.00    +0.017 A 
ATOM     26  C   UNL     1       0.349  -8.717  -4.497  0.00  0.00    +0.012 A 
ATOM     27  C   UNL     1       0.796  -9.038  -5.787  0.00  0.00    +0.005 A 
ATOM     28  C   UNL     1       1.586 -10.175  -6.011  0.00  0.00    -0.034 A 
ATOM     29  C   UNL     1       1.890 -11.000  -4.923  0.00  0.00    +0.005 A 
ATOM     30  C   UNL     1       1.453 -10.681  -3.632  0.00  0.00    +0.012 A 
BRANCH  28  31
ATOM     31  C   UNL     1       1.994 -10.536  -7.421  0.00  0.00    +0.113 C 
BRANCH  31  32
ATOM     32  N   UNL     1       3.291 -11.200  -7.489  0.00  0.00    -0.326 NA
ATOM     33  H   UNL     1       4.003 -10.574  -7.116  0.00  0.00    +0.119 HD
ATOM     34  H   UNL     1       3.532 -11.365  -8.464  0.00  0.00    +0.119 HD
ENDBRANCH  31  32
ENDBRANCH  28  31
ENDBRANCH   9  25
TORSDOF 6
