REMARK  Name = L40
REMARK  8 active torsions:
REMARK  status: ('A' for Active; 'I' for Inactive)
REMARK    1  A    between atoms: C_1  and  C_2
REMARK    2  A    between atoms: C_2  and  C_3
REMARK    3  A    between atoms: N_5  and  C_6
REMARK    4  A    between atoms: C_9  and  S_12
REMARK    5  A    between atoms: S_12  and  C_13
REMARK    6  A    between atoms: C_15  and  N_28
REMARK    7  A    between atoms: N_22  and  C_25
REMARK    8  A    between atoms: C_32  and  C_34
REMARK                            x       y       z     vdW  Elec       q    Type
REMARK                         _______ _______ _______ _____ _____    ______ ____
ROOT
ATOM      1  C   UNL     1       5.499  -8.301  -1.853  0.00  0.00    +0.196 A 
ATOM      2  N   UNL     1       4.892  -9.429  -1.432  0.00  0.00    -0.206 NA
ATOM      3  C   UNL     1       4.169 -10.093  -2.351  0.00  0.00    +0.130 A 
ATOM      4  C   UNL     1       4.141  -9.681  -3.669  0.00  0.00    +0.087 A 
ATOM      5  C   UNL     1       4.800  -8.526  -4.021  0.00  0.00    +0.128 A 
ATOM      6  N   UNL     1       5.459  -7.814  -3.101  0.00  0.00    -0.207 NA
ATOM      7  N   UNL     1       4.819  -8.081  -5.322  0.00  0.00    -0.313 N 
ATOM      8  C   UNL     1       4.816  -6.644  -5.590  0.00  0.00    +0.122 C 
ATOM      9  C   UNL     1       5.853  -6.289  -6.670  0.00  0.00    +0.103 C 
ATOM     10  N   UNL     1       5.754  -7.097  -7.907  0.00  0.00    -0.296 NA
ATOM     11  C   UNL     1       5.833  -8.529  -7.537  0.00  0.00    +0.103 C 
ATOM     12  C   UNL     1       4.811  -8.989  -6.469  0.00  0.00    +0.122 C 
ENDROOT
BRANCH   3  13
ATOM     13  N   UNL     1       3.458 -11.231  -1.921  0.00  0.00    -0.283 N 
ATOM     14  C   UNL     1       2.385 -11.837  -2.488  0.00  0.00    +0.146 A 
ATOM     15  N   UNL     1       1.710 -11.427  -3.566  0.00  0.00    -0.158 NA
ATOM     16  N   UNL     1       0.723 -12.313  -3.719  0.00  0.00    -0.280 N 
ATOM     17  C   UNL     1       0.747 -13.321  -2.800  0.00  0.00    +0.035 A 
ATOM     18  C   UNL     1       1.810 -13.027  -1.971  0.00  0.00    +0.068 A 
ATOM     19  C   UNL     1      -0.237 -14.426  -2.821  0.00  0.00    +0.065 C 
ATOM     20  H   UNL     1       3.691 -11.424  -0.955  0.00  0.00    +0.155 HD
ATOM     21  H   UNL     1       0.069 -12.172  -4.481  0.00  0.00    +0.189 HD
ENDBRANCH   3  13
BRANCH  10  22
ATOM     22  C   UNL     1       4.554  -6.784  -8.706  0.00  0.00    +0.057 C 
ATOM     23  C   UNL     1       4.421  -5.438  -9.363  0.00  0.00    +0.020 C 
ATOM     24  C   UNL     1       4.702  -6.651 -10.197  0.00  0.00    +0.020 C 
ENDBRANCH  10  22
BRANCH   1  25
ATOM     25  S   UNL     1       6.528  -7.405  -0.704  0.00  0.00    -0.050 S 
BRANCH  25  29
ATOM     26  C   UNL     1       3.543  -4.442   1.177  0.00  0.00    +0.033 A 
ATOM     27  C   UNL     1       3.346  -5.821   1.254  0.00  0.00    +0.024 A 
ATOM     28  C   UNL     1       4.248  -6.714   0.673  0.00  0.00    +0.017 A 
ATOM     29  C   UNL     1       5.360  -6.246  -0.021  0.00  0.00    +0.016 A 
ATOM     30  C   UNL     1       5.564  -4.863  -0.113  0.00  0.00    +0.017 A 
ATOM     31  C   UNL     1       4.652  -3.964   0.468  0.00  0.00    +0.024 A 
BRANCH  26  34
ATOM     32  C   UNL     1       1.665  -3.828   2.687  0.00  0.00    +0.217 C 
ATOM     33  O   UNL     1       1.523  -4.916   3.232  0.00  0.00    -0.275 OA
ATOM     34  N   UNL     1       2.644  -3.514   1.753  0.00  0.00    -0.286 N 
ATOM     35  H   UNL     1       2.789  -2.535   1.534  0.00  0.00    +0.155 HD
BRANCH  32  37
ATOM     36  C   UNL     1      -0.278  -3.066   4.064  0.00  0.00    +0.013 C 
ATOM     37  C   UNL     1       0.741  -2.667   3.005  0.00  0.00    +0.093 C 
ENDBRANCH  32  37
ENDBRANCH  26  34
ENDBRANCH  25  29
ENDBRANCH   1  25
TORSDOF 6
