REMARK  Name = L123
REMARK  8 active torsions:
REMARK  status: ('A' for Active; 'I' for Inactive)
REMARK    1  A    between atoms: C_1  and  N_2
REMARK    2  A    between atoms: N_2  and  C_3
REMARK    3  A    between atoms: N_2  and  C_4
REMARK    4  A    between atoms: C_4  and  C_5
REMARK    5  A    between atoms: C_8  and  C_11
REMARK    6  A    between atoms: C_17  and  N_20
REMARK    7  A    between atoms: N_23  and  C_26
REMARK    8  A    between atoms: C_26  and  C_27
REMARK                            x       y       z     vdW  Elec       q    Type
REMARK                         _______ _______ _______ _____ _____    ______ ____
ROOT
ATOM      1  C   UNL     1       8.845   0.460   1.185  0.00  0.00    +0.141 A 
ATOM      2  N   UNL     1       9.613   1.337   0.569  0.00  0.00    -0.208 NA
ATOM      3  C   UNL     1      10.899   0.952   0.833  0.00  0.00    +0.180 A 
ATOM      4  N   UNL     1      11.994   1.553   0.332  0.00  0.00    -0.233 NA
ATOM      5  C   UNL     1      13.148   0.990   0.741  0.00  0.00    +0.130 A 
ATOM      6  C   UNL     1      13.281  -0.096   1.619  0.00  0.00    +0.059 A 
ATOM      7  C   UNL     1      12.138  -0.736   2.164  0.00  0.00    +0.073 A 
ATOM      8  C   UNL     1      10.950  -0.142   1.685  0.00  0.00    +0.108 A 
ATOM      9  N   UNL     1       9.624  -0.445   1.860  0.00  0.00    -0.335 N 
ATOM     10 BR   UNL     1      15.084  -0.500   2.089  0.00  0.00    -0.047 Br
ATOM     11  H   UNL     1       9.272  -1.210   2.411  0.00  0.00    +0.167 HD
ENDROOT
BRANCH   1  15
ATOM     12  C   UNL     1       4.558   0.389   1.207  0.00  0.00    -0.033 A 
ATOM     13  C   UNL     1       5.282  -0.764   1.534  0.00  0.00    +0.005 A 
ATOM     14  C   UNL     1       6.678  -0.749   1.525  0.00  0.00    +0.012 A 
ATOM     15  C   UNL     1       7.382   0.415   1.185  0.00  0.00    +0.017 A 
ATOM     16  C   UNL     1       6.654   1.561   0.836  0.00  0.00    +0.012 A 
ATOM     17  C   UNL     1       5.256   1.546   0.841  0.00  0.00    +0.005 A 
BRANCH  12  18
ATOM     18  C   UNL     1       3.046   0.398   1.308  0.00  0.00    +0.119 C 
BRANCH  18  20
ATOM     19  C   UNL     1       3.015   1.145   3.628  0.00  0.00    +0.104 C 
ATOM     20  N   UNL     1       2.558   0.129   2.675  0.00  0.00    -0.304 NA
ATOM     21  C   UNL     1       1.094   0.078   2.687  0.00  0.00    +0.104 C 
ENDBRANCH  18  20
ENDBRANCH  12  18
ENDBRANCH   1  15
BRANCH   7  22
ATOM     22  N   UNL     1      12.105  -1.786   3.057  0.00  0.00    -0.325 N 
ATOM     23  C   UNL     1      13.060  -2.905   3.079  0.00  0.00    +0.120 C 
ATOM     24  C   UNL     1      13.707  -3.025   4.489  0.00  0.00    +0.104 C 
ATOM     25  N   UNL     1      12.740  -3.138   5.622  0.00  0.00    -0.291 NA
ATOM     26  C   UNL     1      11.795  -1.996   5.508  0.00  0.00    +0.104 C 
ATOM     27  C   UNL     1      11.103  -1.835   4.137  0.00  0.00    +0.120 C 
BRANCH  25  28
ATOM     28  C   UNL     1      12.048  -4.449   5.553  0.00  0.00    +0.181 C 
BRANCH  28  29
ATOM     29  C   UNL     1      10.993  -4.598   6.645  0.00  0.00    +0.233 C 
ATOM     30  O   UNL     1       9.848  -4.925   6.349  0.00  0.00    -0.274 OA
ATOM     31  N   UNL     1      11.485  -4.304   7.896  0.00  0.00    -0.264 N 
ATOM     32  C   UNL     1      10.682  -4.346   8.998  0.00  0.00    +0.164 A 
ATOM     33  N   UNL     1       9.487  -4.867   9.117  0.00  0.00    -0.233 NA
ATOM     34  C   UNL     1       9.002  -4.621  10.380  0.00  0.00    +0.120 A 
ATOM     35  C   UNL     1       9.846  -3.916  11.212  0.00  0.00    +0.068 A 
ATOM     36  S   UNL     1      11.324  -3.598  10.390  0.00  0.00    -0.061 S 
ATOM     37  H   UNL     1      12.384  -3.844   7.969  0.00  0.00    +0.157 HD
ENDBRANCH  28  29
ENDBRANCH  25  28
ENDBRANCH   7  22
TORSDOF 6
