REMARK  Name = L78
REMARK  7 active torsions:
REMARK  status: ('A' for Active; 'I' for Inactive)
REMARK    1  A    between atoms: C_1  and  C_2
REMARK    2  A    between atoms: C_10  and  S_17
REMARK    3  A    between atoms: S_17  and  C_18
REMARK    4  A    between atoms: C_21  and  N_24
REMARK    5  A    between atoms: C_25  and  C_27
REMARK    6  A    between atoms: C_27  and  N_28
REMARK    7  A    between atoms: C_31  and  O_33
REMARK                            x       y       z     vdW  Elec       q    Type
REMARK                         _______ _______ _______ _____ _____    ______ ____
ROOT
ATOM      1  S   UNL     1       0.663   5.787   2.262  0.00  0.00    -0.048 S 
ENDROOT
BRANCH   1  11
ATOM      2  C   UNL     1      -3.223   6.826   7.288  0.00  0.00    +0.065 C 
ATOM      3  C   UNL     1      -2.241   7.883   6.968  0.00  0.00    +0.035 A 
ATOM      4  C   UNL     1      -1.498   8.115   5.837  0.00  0.00    +0.068 A 
ATOM      5  C   UNL     1      -0.674   9.224   6.128  0.00  0.00    +0.146 A 
ATOM      6  N   UNL     1      -0.958   9.715   7.340  0.00  0.00    -0.158 NA
ATOM      7  N   UNL     1      -1.887   8.876   7.833  0.00  0.00    -0.280 N 
ATOM      8  N   UNL     1       0.274   9.769   5.338  0.00  0.00    -0.281 N 
ATOM      9  C   UNL     1       1.007   9.030   4.423  0.00  0.00    +0.153 A 
ATOM     10  N   UNL     1       0.572   7.938   3.866  0.00  0.00    -0.203 NA
ATOM     11  C   UNL     1       1.351   7.241   2.983  0.00  0.00    +0.214 A 
ATOM     12  N   UNL     1       2.542   7.563   2.587  0.00  0.00    -0.139 NA
ATOM     13  N   UNL     1       3.003   8.686   3.139  0.00  0.00    -0.234 N 
ATOM     14  C   UNL     1       2.326   9.453   4.039  0.00  0.00    +0.105 A 
ATOM     15  C   UNL     1       3.139  10.507   4.409  0.00  0.00    +0.033 A 
ATOM     16  C   UNL     1       4.354  10.366   3.692  0.00  0.00    +0.022 A 
ATOM     17  C   UNL     1       4.233   9.239   2.907  0.00  0.00    +0.113 A 
ATOM     18  H   UNL     1      -2.234   9.041   8.773  0.00  0.00    +0.189 HD
ATOM     19  H   UNL     1       0.742  10.568   5.744  0.00  0.00    +0.155 HD
ENDBRANCH   1  11
BRANCH   1  20
ATOM     20  C   UNL     1       0.336   4.779   3.692  0.00  0.00    +0.016 A 
ATOM     21  C   UNL     1      -0.945   4.750   4.240  0.00  0.00    +0.017 A 
ATOM     22  C   UNL     1      -1.241   3.914   5.323  0.00  0.00    +0.024 A 
ATOM     23  C   UNL     1      -0.270   3.078   5.873  0.00  0.00    +0.033 A 
ATOM     24  C   UNL     1       1.013   3.093   5.312  0.00  0.00    +0.024 A 
ATOM     25  C   UNL     1       1.313   3.935   4.226  0.00  0.00    +0.017 A 
BRANCH  23  26
ATOM     26  N   UNL     1      -0.525   2.217   6.965  0.00  0.00    -0.284 N 
ATOM     27  C   UNL     1      -1.728   2.047   7.633  0.00  0.00    +0.231 C 
ATOM     28  O   UNL     1      -2.798   2.594   7.373  0.00  0.00    -0.274 OA
ATOM     29  H   UNL     1       0.262   1.700   7.348  0.00  0.00    +0.155 HD
BRANCH  27  30
ATOM     30  C   UNL     1      -1.647   1.046   8.795  0.00  0.00    +0.180 C 
BRANCH  30  31
ATOM     31  N   UNL     1      -0.608   1.443   9.765  0.00  0.00    -0.291 NA
ATOM     32  C   UNL     1      -0.927   2.726  10.412  0.00  0.00    +0.087 C 
ATOM     33  C   UNL     1       0.038   2.731  11.581  0.00  0.00    +0.048 C 
ATOM     34  C   UNL     1       0.004   1.290  12.073  0.00  0.00    +0.130 C 
ATOM     35  C   UNL     1      -0.516   0.475  10.877  0.00  0.00    +0.116 C 
BRANCH  34  36
ATOM     36  O   UNL     1       1.297   0.874  12.489  0.00  0.00    -0.390 OA
ATOM     37  H   UNL     1       1.887   0.953  11.719  0.00  0.00    +0.210 HD
ENDBRANCH  34  36
ENDBRANCH  30  31
ENDBRANCH  27  30
ENDBRANCH  23  26
ENDBRANCH   1  20
TORSDOF 6
