REMARK  Name = L32
REMARK  7 active torsions:
REMARK  status: ('A' for Active; 'I' for Inactive)
REMARK    1  A    between atoms: C_1  and  C_2
REMARK    2  A    between atoms: N_7  and  C_8
REMARK    3  A    between atoms: C_12  and  S_14
REMARK    4  A    between atoms: S_14  and  C_15
REMARK    5  A    between atoms: C_18  and  N_21
REMARK    6  A    between atoms: C_22  and  C_24
REMARK    7  A    between atoms: N_30  and  C_33
REMARK                            x       y       z     vdW  Elec       q    Type
REMARK                         _______ _______ _______ _____ _____    ______ ____
ROOT
ATOM      1  C   UNL     1       2.363   2.951   0.043  0.00  0.00    +0.130 A 
ATOM      2  C   UNL     1       1.657   3.546   1.067  0.00  0.00    +0.087 A 
ATOM      3  C   UNL     1       1.480   4.916   1.048  0.00  0.00    +0.128 A 
ATOM      4  N   UNL     1       1.956   5.642   0.022  0.00  0.00    -0.207 NA
ATOM      5  C   UNL     1       2.636   4.991  -0.936  0.00  0.00    +0.196 A 
ATOM      6  N   UNL     1       2.863   3.675  -0.960  0.00  0.00    -0.206 NA
ATOM      7  N   UNL     1       0.889   5.576   2.105  0.00  0.00    -0.313 N 
ATOM      8  C   UNL     1       0.074   6.767   1.833  0.00  0.00    +0.122 C 
ATOM      9  C   UNL     1       0.219   7.779   2.994  0.00  0.00    +0.103 C 
ATOM     10  N   UNL     1      -0.080   7.185   4.321  0.00  0.00    -0.302 NA
ATOM     11  C   UNL     1       0.785   6.005   4.530  0.00  0.00    +0.103 C 
ATOM     12  C   UNL     1       0.640   4.953   3.409  0.00  0.00    +0.122 C 
ATOM     13  C   UNL     1       0.143   8.166   5.381  0.00  0.00    +0.105 C 
ENDROOT
BRANCH   1  20
ATOM     14  C   UNL     1       6.339  -0.011  -2.731  0.00  0.00    +0.065 C 
ATOM     15  C   UNL     1       5.220   0.158  -1.784  0.00  0.00    +0.035 A 
ATOM     16  C   UNL     1       4.357   1.207  -1.575  0.00  0.00    +0.068 A 
ATOM     17  C   UNL     1       3.546   0.822  -0.487  0.00  0.00    +0.146 A 
ATOM     18  N   UNL     1       3.835  -0.421  -0.088  0.00  0.00    -0.158 NA
ATOM     19  N   UNL     1       4.864  -0.787  -0.867  0.00  0.00    -0.280 N 
ATOM     20  N   UNL     1       2.620   1.574   0.135  0.00  0.00    -0.283 N 
ATOM     21  H   UNL     1       5.286  -1.695  -0.705  0.00  0.00    +0.189 HD
ATOM     22  H   UNL     1       2.116   1.097   0.870  0.00  0.00    +0.155 HD
ENDBRANCH   1  20
BRANCH   5  23
ATOM     23  S   UNL     1       3.334   5.928  -2.280  0.00  0.00    -0.050 S 
BRANCH  23  24
ATOM     24  C   UNL     1       2.030   5.751  -3.479  0.00  0.00    +0.016 A 
ATOM     25  C   UNL     1       0.780   6.307  -3.217  0.00  0.00    +0.017 A 
ATOM     26  C   UNL     1      -0.259   6.190  -4.142  0.00  0.00    +0.024 A 
ATOM     27  C   UNL     1      -0.072   5.528  -5.356  0.00  0.00    +0.033 A 
ATOM     28  C   UNL     1       1.187   4.974  -5.625  0.00  0.00    +0.024 A 
ATOM     29  C   UNL     1       2.234   5.087  -4.693  0.00  0.00    +0.017 A 
BRANCH  27  30
ATOM     30  N   UNL     1      -1.095   5.389  -6.327  0.00  0.00    -0.285 N 
ATOM     31  C   UNL     1      -2.378   5.904  -6.241  0.00  0.00    +0.220 C 
ATOM     32  O   UNL     1      -2.836   6.582  -5.331  0.00  0.00    -0.275 OA
ATOM     33  H   UNL     1      -0.858   4.879  -7.163  0.00  0.00    +0.155 HD
BRANCH  31  34
ATOM     34  C   UNL     1      -3.300   5.610  -7.378  0.00  0.00    +0.075 C 
ATOM     35  C   UNL     1      -2.866   5.715  -8.819  0.00  0.00    +0.013 C 
ATOM     36  C   UNL     1      -3.224   4.374  -8.239  0.00  0.00    +0.013 C 
ENDBRANCH  31  34
ENDBRANCH  27  30
ENDBRANCH  23  24
ENDBRANCH   5  23
TORSDOF 5
