REMARK  Name = L89
REMARK  7 active torsions:
REMARK  status: ('A' for Active; 'I' for Inactive)
REMARK    1  A    between atoms: C_1  and  C_2
REMARK    2  A    between atoms: C_4  and  C_7
REMARK    3  A    between atoms: C_7  and  N_8
REMARK    4  A    between atoms: N_11  and  C_14
REMARK    5  A    between atoms: C_22  and  C_24
REMARK    6  A    between atoms: C_28  and  C_30
REMARK    7  A    between atoms: C_30  and  N_31
REMARK                            x       y       z     vdW  Elec       q    Type
REMARK                         _______ _______ _______ _____ _____    ______ ____
ROOT
ATOM      1  C   UNL     1      -0.904  -6.969   0.440  0.00  0.00    +0.077 A 
ATOM      2  C   UNL     1      -0.364  -7.891  -0.490  0.00  0.00    +0.108 A 
ATOM      3  C   UNL     1      -0.153  -9.231  -0.193  0.00  0.00    +0.180 A 
ATOM      4  N   UNL     1      -0.481  -9.809   0.979  0.00  0.00    -0.233 NA
ATOM      5  C   UNL     1      -1.008  -8.957   1.876  0.00  0.00    +0.135 A 
ATOM      6  C   UNL     1      -1.217  -7.591   1.682  0.00  0.00    +0.082 A 
ATOM      7 CL   UNL     1      -1.734  -6.716   3.091  0.00  0.00    -0.080 Cl
ATOM      8  N   UNL     1       0.447  -9.889  -1.217  0.00  0.00    -0.208 NA
ATOM      9  C   UNL     1       0.606  -9.003  -2.182  0.00  0.00    +0.141 A 
ATOM     10  N   UNL     1       0.063  -7.801  -1.796  0.00  0.00    -0.335 N 
ATOM     11  H   UNL     1      -0.005  -6.984  -2.380  0.00  0.00    +0.167 HD
ENDROOT
BRANCH   1  15
ATOM     12  N   UNL     1      -1.097  -2.768  -0.117  0.00  0.00    -0.294 NA
ATOM     13  C   UNL     1      -1.837  -3.425   0.988  0.00  0.00    +0.103 C 
ATOM     14  C   UNL     1      -2.235  -4.849   0.533  0.00  0.00    +0.120 C 
ATOM     15  N   UNL     1      -1.010  -5.611   0.199  0.00  0.00    -0.325 N 
ATOM     16  C   UNL     1      -0.147  -4.932  -0.783  0.00  0.00    +0.120 C 
ATOM     17  C   UNL     1       0.163  -3.491  -0.328  0.00  0.00    +0.103 C 
BRANCH  12  18
ATOM     18  C   UNL     1      -0.916  -1.331   0.077  0.00  0.00    +0.143 C 
BRANCH  18  22
ATOM     19  C   UNL     1      -5.494   0.251  -1.545  0.00  0.00    +0.089 C 
ATOM     20  C   UNL     1      -4.216  -0.053  -0.881  0.00  0.00    +0.135 A 
ATOM     21  C   UNL     1      -3.159  -0.870  -1.183  0.00  0.00    +0.072 A 
ATOM     22  C   UNL     1      -2.241  -0.662  -0.122  0.00  0.00    +0.098 A 
ATOM     23  N   UNL     1      -2.722   0.211   0.772  0.00  0.00    -0.082 NA
ATOM     24  O   UNL     1      -3.965   0.590   0.290  0.00  0.00    -0.360 OA
ENDBRANCH  18  22
ENDBRANCH  12  18
ENDBRANCH   1  15
BRANCH   9  25
ATOM     25  C   UNL     1       1.237  -9.295  -3.478  0.00  0.00    +0.018 A 
ATOM     26  C   UNL     1       1.483  -8.338  -4.468  0.00  0.00    +0.011 A 
ATOM     27  C   UNL     1       2.056  -8.715  -5.690  0.00  0.00    +0.001 A 
ATOM     28  C   UNL     1       2.389 -10.052  -5.942  0.00  0.00    +0.005 A 
ATOM     29  C   UNL     1       2.171 -11.031  -4.960  0.00  0.00    -0.033 A 
ATOM     30  C   UNL     1       1.601 -10.628  -3.742  0.00  0.00    +0.016 A 
BRANCH  29  31
ATOM     31  C   UNL     1       2.430 -12.499  -5.209  0.00  0.00    +0.119 C 
BRANCH  31  32
ATOM     32  N   UNL     1       3.716 -13.088  -4.841  0.00  0.00    -0.294 NA
ATOM     33  C   UNL     1       4.147 -12.946  -3.446  0.00  0.00    +0.113 C 
ATOM     34  C   UNL     1       4.971 -11.678  -3.163  0.00  0.00    +0.175 C 
ATOM     35  O   UNL     1       6.077 -11.548  -4.068  0.00  0.00    -0.377 OA
ATOM     36  C   UNL     1       5.641 -11.572  -5.432  0.00  0.00    +0.175 C 
ATOM     37  C   UNL     1       4.836 -12.839  -5.751  0.00  0.00    +0.113 C 
ENDBRANCH  31  32
ENDBRANCH  29  31
ENDBRANCH   9  25
TORSDOF 6
