REMARK  Name = L155
REMARK  6 active torsions:
REMARK  status: ('A' for Active; 'I' for Inactive)
REMARK    1  A    between atoms: C_1  and  C_2
REMARK    2  A    between atoms: C_4  and  C_7
REMARK    3  A    between atoms: C_7  and  N_8
REMARK    4  A    between atoms: N_11  and  C_14
REMARK    5  A    between atoms: C_22  and  C_24
REMARK    6  A    between atoms: N_28  and  C_29
REMARK                            x       y       z     vdW  Elec       q    Type
REMARK                         _______ _______ _______ _____ _____    ______ ____
ROOT
ATOM      1  C   UNL     1      -1.102  -7.004   0.525  0.00  0.00    +0.077 A 
ATOM      2  C   UNL     1       0.098  -7.555   1.020  0.00  0.00    +0.108 A 
ATOM      3  C   UNL     1       0.223  -8.877   1.435  0.00  0.00    +0.180 A 
ATOM      4  N   UNL     1      -0.772  -9.782   1.377  0.00  0.00    -0.233 NA
ATOM      5  C   UNL     1      -1.927  -9.280   0.897  0.00  0.00    +0.135 A 
ATOM      6  C   UNL     1      -2.147  -7.964   0.486  0.00  0.00    +0.082 A 
ATOM      7 CL   UNL     1      -3.786  -7.570   0.070  0.00  0.00    -0.080 Cl
ATOM      8  N   UNL     1       1.463  -9.148   1.935  0.00  0.00    -0.205 NA
ATOM      9  C   UNL     1       2.130  -8.022   1.813  0.00  0.00    +0.177 A 
ATOM     10  N   UNL     1       1.365  -7.056   1.212  0.00  0.00    -0.333 N 
ATOM     11  H   UNL     1       1.703  -6.132   0.987  0.00  0.00    +0.168 HD
ENDROOT
BRANCH   1  15
ATOM     12  N   UNL     1      -1.956  -2.916  -0.138  0.00  0.00    -0.294 NA
ATOM     13  C   UNL     1      -2.804  -3.993  -0.705  0.00  0.00    +0.103 C 
ATOM     14  C   UNL     1      -1.912  -5.212  -1.030  0.00  0.00    +0.120 C 
ATOM     15  N   UNL     1      -1.244  -5.670   0.204  0.00  0.00    -0.325 N 
ATOM     16  C   UNL     1      -0.497  -4.614   0.909  0.00  0.00    +0.120 C 
ATOM     17  C   UNL     1      -1.403  -3.383   1.143  0.00  0.00    +0.103 C 
BRANCH  12  18
ATOM     18  C   UNL     1      -2.646  -1.631  -0.036  0.00  0.00    +0.143 C 
BRANCH  18  22
ATOM     19  C   UNL     1      -2.058  -0.056  -4.861  0.00  0.00    +0.089 C 
ATOM     20  C   UNL     1      -2.463  -0.428  -3.496  0.00  0.00    +0.135 A 
ATOM     21  C   UNL     1      -1.806  -0.970  -2.423  0.00  0.00    +0.072 A 
ATOM     22  C   UNL     1      -2.799  -1.066  -1.415  0.00  0.00    +0.098 A 
ATOM     23  N   UNL     1      -3.981  -0.614  -1.855  0.00  0.00    -0.082 NA
ATOM     24  O   UNL     1      -3.764  -0.216  -3.164  0.00  0.00    -0.360 OA
ENDBRANCH  18  22
ENDBRANCH  12  18
ENDBRANCH   1  15
BRANCH   9  25
ATOM     25  C   UNL     1       3.469  -7.786   2.235  0.00  0.00    +0.176 A 
ATOM     26  N   UNL     1       4.093  -6.631   2.085  0.00  0.00    -0.233 NA
ATOM     27  C   UNL     1       5.342  -6.814   2.622  0.00  0.00    +0.131 A 
ATOM     28  C   UNL     1       5.486  -8.093   3.105  0.00  0.00    +0.107 A 
ATOM     29  N   UNL     1       4.284  -8.703   2.859  0.00  0.00    -0.331 N 
ATOM     30  C   UNL     1       3.945 -10.060   3.206  0.00  0.00    +0.150 C 
ENDBRANCH   9  25
TORSDOF 4
