REMARK  Name = L51
REMARK  7 active torsions:
REMARK  status: ('A' for Active; 'I' for Inactive)
REMARK    1  A    between atoms: C_1  and  C_2
REMARK    2  A    between atoms: C_2  and  C_3
REMARK    3  A    between atoms: N_5  and  C_6
REMARK    4  A    between atoms: C_9  and  S_12
REMARK    5  A    between atoms: S_12  and  C_13
REMARK    6  A    between atoms: C_15  and  C_26
REMARK    7  A    between atoms: C_23  and  C_25
REMARK                            x       y       z     vdW  Elec       q    Type
REMARK                         _______ _______ _______ _____ _____    ______ ____
ROOT
ATOM      1  C   UNL     1       5.747  -4.574   7.007  0.00  0.00    +0.195 A 
ATOM      2  N   UNL     1       5.213  -4.402   8.228  0.00  0.00    -0.226 NA
ATOM      3  C   UNL     1       4.427  -5.384   8.700  0.00  0.00    +0.051 A 
ATOM      4  C   UNL     1       4.207  -6.521   7.953  0.00  0.00    +0.067 A 
ATOM      5  C   UNL     1       4.821  -6.649   6.724  0.00  0.00    +0.129 A 
ATOM      6  N   UNL     1       5.574  -5.658   6.226  0.00  0.00    -0.206 NA
ATOM      7  N   UNL     1       4.678  -7.808   5.943  0.00  0.00    -0.283 N 
ATOM      8  C   UNL     1       4.276  -9.043   6.327  0.00  0.00    +0.146 A 
ATOM      9  N   UNL     1       4.090  -9.455   7.583  0.00  0.00    -0.158 NA
ATOM     10  N   UNL     1       3.691 -10.723   7.480  0.00  0.00    -0.280 N 
ATOM     11  C   UNL     1       3.583 -11.156   6.192  0.00  0.00    +0.035 A 
ATOM     12  C   UNL     1       3.994 -10.092   5.416  0.00  0.00    +0.068 A 
ATOM     13  C   UNL     1       3.094 -12.512   5.866  0.00  0.00    +0.065 C 
ATOM     14  H   UNL     1       5.123  -7.671   5.044  0.00  0.00    +0.155 HD
ATOM     15  H   UNL     1       3.494 -11.231   8.335  0.00  0.00    +0.189 HD
ENDROOT
BRANCH   3  16
ATOM     16  C   UNL     1       3.784  -5.264  10.059  0.00  0.00    +0.038 C 
ATOM     17  C   UNL     1       3.380  -3.929  10.629  0.00  0.00    +0.010 C 
ATOM     18  C   UNL     1       2.324  -4.876  10.142  0.00  0.00    +0.010 C 
ENDBRANCH   3  16
BRANCH   1  19
ATOM     19  S   UNL     1       6.802  -3.297   6.357  0.00  0.00    -0.050 S 
BRANCH  19  23
ATOM     20  C   UNL     1       5.446   0.575   8.447  0.00  0.00    +0.033 A 
ATOM     21  C   UNL     1       6.713   0.033   8.675  0.00  0.00    +0.024 A 
ATOM     22  C   UNL     1       7.108  -1.159   8.059  0.00  0.00    +0.017 A 
ATOM     23  C   UNL     1       6.236  -1.839   7.210  0.00  0.00    +0.016 A 
ATOM     24  C   UNL     1       4.956  -1.316   6.997  0.00  0.00    +0.017 A 
ATOM     25  C   UNL     1       4.558  -0.125   7.623  0.00  0.00    +0.024 A 
BRANCH  20  28
ATOM     26  C   UNL     1       5.854   2.753   9.577  0.00  0.00    +0.217 C 
ATOM     27  O   UNL     1       7.081   2.703   9.609  0.00  0.00    -0.275 OA
ATOM     28  N   UNL     1       5.021   1.800   9.011  0.00  0.00    -0.286 N 
ATOM     29  H   UNL     1       4.048   2.049   8.882  0.00  0.00    +0.155 HD
BRANCH  26  31
ATOM     30  C   UNL     1       6.068   4.975  10.709  0.00  0.00    +0.013 C 
ATOM     31  C   UNL     1       5.101   3.931  10.167  0.00  0.00    +0.093 C 
ENDBRANCH  26  31
ENDBRANCH  20  28
ENDBRANCH  19  23
ENDBRANCH   1  19
TORSDOF 5
