REMARK  Name = L118
REMARK  9 active torsions:
REMARK  status: ('A' for Active; 'I' for Inactive)
REMARK    1  A    between atoms: C_1  and  C_2
REMARK    2  A    between atoms: C_4  and  C_7
REMARK    3  A    between atoms: C_7  and  N_8
REMARK    4  A    between atoms: N_11  and  C_14
REMARK    5  A    between atoms: C_22  and  C_24
REMARK    6  A    between atoms: C_27  and  C_30
REMARK    7  A    between atoms: C_30  and  N_31
REMARK    8  A    between atoms: N_31  and  C_32
REMARK    9  A    between atoms: N_31  and  C_33
REMARK                            x       y       z     vdW  Elec       q    Type
REMARK                         _______ _______ _______ _____ _____    ______ ____
ROOT
ATOM      1  C   UNL     1      -1.047  -6.999   0.523  0.00  0.00    +0.073 A 
ATOM      2  C   UNL     1      -0.529  -7.993  -0.333  0.00  0.00    +0.108 A 
ATOM      3  C   UNL     1      -0.429  -9.338  -0.004  0.00  0.00    +0.180 A 
ATOM      4  N   UNL     1      -0.789  -9.839   1.192  0.00  0.00    -0.233 NA
ATOM      5  C   UNL     1      -1.291  -8.914   2.033  0.00  0.00    +0.130 A 
ATOM      6  C   UNL     1      -1.452  -7.548   1.765  0.00  0.00    +0.059 A 
ATOM      7 BR   UNL     1      -2.347  -6.577   3.143  0.00  0.00    -0.047 Br
ATOM      8  N   UNL     1       0.070 -10.082  -1.034  0.00  0.00    -0.208 NA
ATOM      9  C   UNL     1       0.287  -9.229  -2.015  0.00  0.00    +0.141 A 
ATOM     10  N   UNL     1       0.030  -7.953  -1.584  0.00  0.00    -0.335 N 
ATOM     11  H   UNL     1       0.207  -7.119  -2.121  0.00  0.00    +0.167 HD
ENDROOT
BRANCH   1  15
ATOM     12  N   UNL     1      -0.585  -3.002  -0.803  0.00  0.00    -0.294 NA
ATOM     13  C   UNL     1      -0.062  -3.430   0.512  0.00  0.00    +0.103 C 
ATOM     14  C   UNL     1      -0.924  -4.568   1.105  0.00  0.00    +0.120 C 
ATOM     15  N   UNL     1      -1.057  -5.674   0.141  0.00  0.00    -0.325 N 
ATOM     16  C   UNL     1      -1.496  -5.236  -1.201  0.00  0.00    +0.120 C 
ATOM     17  C   UNL     1      -0.537  -4.141  -1.726  0.00  0.00    +0.103 C 
BRANCH  12  18
ATOM     18  C   UNL     1       0.057  -1.786  -1.296  0.00  0.00    +0.143 C 
BRANCH  18  22
ATOM     19  C   UNL     1      -2.790   1.648   1.203  0.00  0.00    +0.089 C 
ATOM     20  C   UNL     1      -1.772   0.792   0.571  0.00  0.00    +0.135 A 
ATOM     21  C   UNL     1      -1.827  -0.331  -0.213  0.00  0.00    +0.072 A 
ATOM     22  C   UNL     1      -0.471  -0.629  -0.499  0.00  0.00    +0.098 A 
ATOM     23  N   UNL     1       0.353   0.246   0.092  0.00  0.00    -0.082 NA
ATOM     24  O   UNL     1      -0.471   1.137   0.765  0.00  0.00    -0.360 OA
ENDBRANCH  18  22
ENDBRANCH  12  18
ENDBRANCH   1  15
BRANCH   9  25
ATOM     25  C   UNL     1       0.765  -9.553  -3.357  0.00  0.00    +0.017 A 
ATOM     26  C   UNL     1       0.429  -8.782  -4.479  0.00  0.00    +0.012 A 
ATOM     27  C   UNL     1       0.861  -9.161  -5.755  0.00  0.00    +0.005 A 
ATOM     28  C   UNL     1       1.640 -10.312  -5.933  0.00  0.00    -0.033 A 
ATOM     29  C   UNL     1       1.988 -11.070  -4.808  0.00  0.00    +0.005 A 
ATOM     30  C   UNL     1       1.550 -10.696  -3.537  0.00  0.00    +0.012 A 
BRANCH  28  31
ATOM     31  C   UNL     1       2.054 -10.777  -7.313  0.00  0.00    +0.119 C 
BRANCH  31  32
ATOM     32  N   UNL     1       2.820  -9.785  -8.087  0.00  0.00    -0.304 NA
ATOM     33  C   UNL     1       4.107  -9.479  -7.454  0.00  0.00    +0.104 C 
ATOM     34  C   UNL     1       3.055 -10.309  -9.437  0.00  0.00    +0.104 C 
ENDBRANCH  31  32
ENDBRANCH  28  31
ENDBRANCH   9  25
TORSDOF 6
