REMARK  Name = L145
REMARK  6 active torsions:
REMARK  status: ('A' for Active; 'I' for Inactive)
REMARK    1  A    between atoms: N_3  and  C_14
REMARK    2  A    between atoms: N_6  and  C_7
REMARK    3  A    between atoms: C_7  and  C_8
REMARK    4  A    between atoms: C_22  and  C_24
REMARK    5  A    between atoms: C_27  and  C_30
REMARK    6  A    between atoms: C_30  and  N_31
REMARK                            x       y       z     vdW  Elec       q    Type
REMARK                         _______ _______ _______ _____ _____    ______ ____
ROOT
ATOM      1  C   UNL     1      -2.556   0.070   1.040  0.00  0.00    +0.073 A 
ATOM      2  C   UNL     1      -3.751   0.562   0.467  0.00  0.00    +0.108 A 
ATOM      3  C   UNL     1      -4.968   0.586   1.137  0.00  0.00    +0.180 A 
ATOM      4  N   UNL     1      -5.152   0.130   2.389  0.00  0.00    -0.233 NA
ATOM      5  C   UNL     1      -4.030  -0.339   2.963  0.00  0.00    +0.130 A 
ATOM      6  C   UNL     1      -2.763  -0.381   2.374  0.00  0.00    +0.059 A 
ATOM      7 BR   UNL     1      -1.372  -0.928   3.564  0.00  0.00    -0.047 Br
ATOM      8  N   UNL     1      -5.956   1.131   0.379  0.00  0.00    -0.208 NA
ATOM      9  C   UNL     1      -5.399   1.460  -0.770  0.00  0.00    +0.141 A 
ATOM     10  N   UNL     1      -4.078   1.081  -0.769  0.00  0.00    -0.335 N 
ATOM     11  H   UNL     1      -3.455   1.166  -1.554  0.00  0.00    +0.167 HD
ENDROOT
BRANCH   1  14
ATOM     12  C   UNL     1       1.024  -0.476   0.640  0.00  0.00    +0.103 C 
ATOM     13  C   UNL     1      -0.401  -1.034   0.416  0.00  0.00    +0.120 C 
ATOM     14  N   UNL     1      -1.342   0.097   0.382  0.00  0.00    -0.325 N 
ATOM     15  C   UNL     1      -1.008   1.124  -0.618  0.00  0.00    +0.120 C 
ATOM     16  C   UNL     1       0.476   1.562  -0.498  0.00  0.00    +0.103 C 
ATOM     17  N   UNL     1       1.471   0.463  -0.425  0.00  0.00    -0.295 NA
BRANCH  17  18
ATOM     18  C   UNL     1       1.632  -0.187  -1.737  0.00  0.00    +0.122 C 
BRANCH  18  19
ATOM     19  C   UNL     1       2.629  -1.300  -1.734  0.00  0.00    +0.003 A 
ATOM     20  C   UNL     1       2.285  -2.613  -1.999  0.00  0.00    +0.119 A 
ATOM     21  N   UNL     1       3.153  -3.641  -1.972  0.00  0.00    -0.243 NA
ATOM     22  C   UNL     1       4.420  -3.317  -1.674  0.00  0.00    +0.221 A 
ATOM     23  N   UNL     1       4.881  -2.087  -1.409  0.00  0.00    -0.243 NA
ATOM     24  C   UNL     1       3.966  -1.099  -1.440  0.00  0.00    +0.119 A 
ENDBRANCH  18  19
ENDBRANCH  17  18
ENDBRANCH   1  14
BRANCH   9  25
ATOM     25  C   UNL     1      -6.109   2.117  -1.874  0.00  0.00    +0.017 A 
ATOM     26  C   UNL     1      -5.488   2.889  -2.865  0.00  0.00    +0.012 A 
ATOM     27  C   UNL     1      -6.262   3.603  -3.801  0.00  0.00    +0.005 A 
ATOM     28  C   UNL     1      -7.665   3.558  -3.752  0.00  0.00    -0.033 A 
ATOM     29  C   UNL     1      -8.273   2.731  -2.803  0.00  0.00    +0.005 A 
ATOM     30  C   UNL     1      -7.507   2.028  -1.878  0.00  0.00    +0.012 A 
BRANCH  28  31
ATOM     31  C   UNL     1      -8.548   4.452  -4.600  0.00  0.00    +0.119 C 
BRANCH  31  32
ATOM     32  N   UNL     1      -8.816   4.019  -5.977  0.00  0.00    -0.294 NA
ATOM     33  C   UNL     1      -9.772   4.955  -6.623  0.00  0.00    +0.113 C 
ATOM     34  C   UNL     1     -11.238   4.756  -6.191  0.00  0.00    +0.175 C 
ATOM     35  O   UNL     1     -11.676   3.427  -6.479  0.00  0.00    -0.377 OA
ATOM     36  C   UNL     1     -10.849   2.454  -5.832  0.00  0.00    +0.175 C 
ATOM     37  C   UNL     1      -9.350   2.650  -6.131  0.00  0.00    +0.113 C 
ENDBRANCH  31  32
ENDBRANCH  28  31
ENDBRANCH   9  25
TORSDOF 6
