REMARK  Name = L138
REMARK  6 active torsions:
REMARK  status: ('A' for Active; 'I' for Inactive)
REMARK    1  A    between atoms: C_1  and  C_2
REMARK    2  A    between atoms: N_4  and  C_31
REMARK    3  A    between atoms: C_6  and  C_7
REMARK    4  A    between atoms: C_13  and  N_16
REMARK    5  A    between atoms: N_19  and  C_22
REMARK    6  A    between atoms: C_22  and  C_23
REMARK                            x       y       z     vdW  Elec       q    Type
REMARK                         _______ _______ _______ _____ _____    ______ ____
ROOT
ATOM      1  C   UNL     1      -1.017  -6.547  -1.672  0.00  0.00    +0.144 A 
ATOM      2  N   UNL     1      -2.021  -5.894  -2.218  0.00  0.00    -0.208 NA
ATOM      3  C   UNL     1      -2.824  -5.529  -1.175  0.00  0.00    +0.180 A 
ATOM      4  N   UNL     1      -3.981  -4.852  -1.307  0.00  0.00    -0.233 NA
ATOM      5  C   UNL     1      -4.598  -4.606  -0.134  0.00  0.00    +0.135 A 
ATOM      6  C   UNL     1      -4.135  -4.964   1.137  0.00  0.00    +0.082 A 
ATOM      7  C   UNL     1      -2.910  -5.660   1.295  0.00  0.00    +0.077 A 
ATOM      8  C   UNL     1      -2.305  -5.933   0.049  0.00  0.00    +0.108 A 
ATOM      9  N   UNL     1      -1.146  -6.575  -0.310  0.00  0.00    -0.335 N 
ATOM     10 CL   UNL     1      -5.216  -4.603   2.445  0.00  0.00    -0.080 Cl
ATOM     11  H   UNL     1      -0.489  -7.007   0.319  0.00  0.00    +0.167 HD
ENDROOT
BRANCH   1  17
ATOM     12  C   UNL     1      -0.351  -6.278  -4.834  0.00  0.00    +0.068 C 
ATOM     13  C   UNL     1       0.373  -7.071  -3.806  0.00  0.00    +0.071 A 
ATOM     14  N   UNL     1       1.458  -7.786  -4.138  0.00  0.00    -0.176 NA
ATOM     15  N   UNL     1       1.859  -8.335  -2.978  0.00  0.00    -0.274 N 
ATOM     16  C   UNL     1       1.086  -7.975  -1.905  0.00  0.00    +0.119 A 
ATOM     17  C   UNL     1       0.093  -7.169  -2.423  0.00  0.00    +0.058 A 
ATOM     18  C   UNL     1       2.999  -9.216  -2.952  0.00  0.00    +0.172 C 
ENDBRANCH   1  17
BRANCH   7  19
ATOM     19  N   UNL     1      -2.325  -6.053   2.481  0.00  0.00    -0.325 N 
ATOM     20  C   UNL     1      -2.391  -5.262   3.725  0.00  0.00    +0.120 C 
ATOM     21  C   UNL     1      -2.970  -6.109   4.891  0.00  0.00    +0.103 C 
ATOM     22  N   UNL     1      -2.300  -7.425   5.097  0.00  0.00    -0.295 NA
ATOM     23  C   UNL     1      -2.367  -8.149   3.808  0.00  0.00    +0.103 C 
ATOM     24  C   UNL     1      -1.736  -7.397   2.620  0.00  0.00    +0.120 C 
BRANCH  22  25
ATOM     25  C   UNL     1      -0.920  -7.222   5.575  0.00  0.00    +0.119 C 
BRANCH  25  26
ATOM     26  C   UNL     1      -0.126  -8.492   5.800  0.00  0.00    -0.033 A 
ATOM     27  C   UNL     1       1.076  -8.710   5.106  0.00  0.00    +0.006 A 
ATOM     28  C   UNL     1       1.849  -9.844   5.365  0.00  0.00    +0.020 A 
ATOM     29  C   UNL     1       1.430 -10.761   6.325  0.00  0.00    +0.041 A 
ATOM     30  C   UNL     1       0.232 -10.568   7.009  0.00  0.00    +0.020 A 
ATOM     31  C   UNL     1      -0.548  -9.440   6.742  0.00  0.00    +0.006 A 
ATOM     32 CL   UNL     1       2.407 -12.133   6.677  0.00  0.00    -0.084 Cl
ENDBRANCH  25  26
ENDBRANCH  22  25
ENDBRANCH   7  19
TORSDOF 4
