REMARK  Name = L152
REMARK  8 active torsions:
REMARK  status: ('A' for Active; 'I' for Inactive)
REMARK    1  A    between atoms: C_1  and  C_2
REMARK    2  A    between atoms: C_2  and  C_3
REMARK    3  A    between atoms: C_2  and  N_9
REMARK    4  A    between atoms: N_12  and  C_15
REMARK    5  A    between atoms: C_23  and  C_25
REMARK    6  A    between atoms: C_28  and  N_31
REMARK    7  A    between atoms: N_31  and  C_32
REMARK    8  A    between atoms: N_31  and  C_33
REMARK                            x       y       z     vdW  Elec       q    Type
REMARK                         _______ _______ _______ _____ _____    ______ ____
ROOT
ATOM      1  C   UNL     1       2.858  -4.896  -1.999  0.00  0.00    +0.073 A 
ATOM      2  C   UNL     1       4.047  -5.664  -2.065  0.00  0.00    +0.108 A 
ATOM      3  C   UNL     1       4.091  -6.942  -2.621  0.00  0.00    +0.180 A 
ATOM      4  N   UNL     1       3.026  -7.579  -3.146  0.00  0.00    -0.233 NA
ATOM      5  C   UNL     1       1.903  -6.845  -3.151  0.00  0.00    +0.130 A 
ATOM      6  C   UNL     1       1.769  -5.556  -2.638  0.00  0.00    +0.059 A 
ATOM      7 BR   UNL     1       0.092  -4.716  -3.011  0.00  0.00    -0.047 Br
ATOM      8  N   UNL     1       5.344  -7.477  -2.598  0.00  0.00    -0.208 NA
ATOM      9  C   UNL     1       6.128  -6.558  -2.067  0.00  0.00    +0.141 A 
ATOM     10  N   UNL     1       5.359  -5.477  -1.669  0.00  0.00    -0.335 N 
ATOM     11  H   UNL     1       5.716  -4.658  -1.207  0.00  0.00    +0.167 HD
ENDROOT
BRANCH   1  15
ATOM     12  N   UNL     1       2.178  -0.890  -0.479  0.00  0.00    -0.293 NA
ATOM     13  C   UNL     1       3.327  -1.216  -1.347  0.00  0.00    +0.104 C 
ATOM     14  C   UNL     1       3.858  -2.678  -1.321  0.00  0.00    +0.120 C 
ATOM     15  N   UNL     1       2.741  -3.626  -1.443  0.00  0.00    -0.325 N 
ATOM     16  C   UNL     1       1.689  -3.395  -0.432  0.00  0.00    +0.120 C 
ATOM     17  C   UNL     1       1.153  -1.950  -0.577  0.00  0.00    +0.104 C 
BRANCH  12  19
ATOM     18  C   UNL     1       3.079  -1.419   1.871  0.00  0.00    +0.029 C 
ATOM     19  C   UNL     1       2.443  -0.424   0.891  0.00  0.00    +0.084 C 
BRANCH  19  20
ATOM     20  C   UNL     1       3.157   0.926   0.909  0.00  0.00    -0.028 A 
ATOM     21  C   UNL     1       4.530   1.054   1.151  0.00  0.00    +0.025 A 
ATOM     22  C   UNL     1       5.088   2.322   1.213  0.00  0.00    +0.111 A 
ATOM     23  N   UNL     1       4.386   3.461   1.043  0.00  0.00    -0.263 NA
ATOM     24  C   UNL     1       3.068   3.323   0.786  0.00  0.00    +0.111 A 
ATOM     25  C   UNL     1       2.421   2.100   0.703  0.00  0.00    +0.025 A 
ENDBRANCH  19  20
ENDBRANCH  12  19
ENDBRANCH   1  15
BRANCH   9  26
ATOM     26  C   UNL     1       7.593  -6.676  -1.972  0.00  0.00    +0.017 A 
ATOM     27  C   UNL     1       8.220  -7.857  -2.398  0.00  0.00    +0.013 A 
ATOM     28  C   UNL     1       9.621  -7.997  -2.397  0.00  0.00    +0.024 A 
ATOM     29  C   UNL     1      10.466  -6.963  -1.974  0.00  0.00    +0.029 A 
ATOM     30  C   UNL     1       9.818  -5.801  -1.518  0.00  0.00    +0.024 A 
ATOM     31  C   UNL     1       8.418  -5.650  -1.518  0.00  0.00    +0.013 A 
BRANCH  29  32
ATOM     32  N   UNL     1      11.849  -7.069  -1.965  0.00  0.00    -0.336 N 
ATOM     33  C   UNL     1      12.691  -5.908  -2.250  0.00  0.00    +0.129 C 
ATOM     34  C   UNL     1      12.543  -8.352  -2.032  0.00  0.00    +0.129 C 
ENDBRANCH  29  32
ENDBRANCH   9  26
TORSDOF 5
