REMARK  Name = L185
REMARK  7 active torsions:
REMARK  status: ('A' for Active; 'I' for Inactive)
REMARK    1  A    between atoms: C_1  and  C_2
REMARK    2  A    between atoms: C_2  and  C_3
REMARK    3  A    between atoms: C_2  and  C_7
REMARK    4  A    between atoms: C_3  and  C_4
REMARK    5  A    between atoms: C_9  and  N_13
REMARK    6  A    between atoms: N_20  and  C_21
REMARK    7  A    between atoms: C_25  and  C_27
REMARK                            x       y       z     vdW  Elec       q    Type
REMARK                         _______ _______ _______ _____ _____    ______ ____
ROOT
ATOM      1  N   UNL     1       4.338  -2.504  -3.803  0.00  0.00    -0.284 N 
ATOM      2  C   UNL     1       5.143  -2.679  -4.930  0.00  0.00    +0.221 A 
ATOM      3  N   UNL     1       4.979  -3.830  -5.597  0.00  0.00    -0.223 NA
ATOM      4  C   UNL     1       5.677  -3.968  -6.740  0.00  0.00    +0.118 A 
ATOM      5  C   UNL     1       6.529  -3.010  -7.235  0.00  0.00    +0.063 A 
ATOM      6  C   UNL     1       6.682  -1.884  -6.461  0.00  0.00    +0.128 A 
ATOM      7  N   UNL     1       5.988  -1.726  -5.324  0.00  0.00    -0.199 NA
ATOM      8  N   UNL     1       7.605  -0.888  -6.856  0.00  0.00    -0.299 N 
ATOM      9  H   UNL     1       3.724  -3.301  -3.720  0.00  0.00    +0.155 HD
ATOM     10  H   UNL     1       7.381  -0.541  -7.781  0.00  0.00    +0.154 HD
ENDROOT
BRANCH   1  13
ATOM     11  C   UNL     1       2.313  -0.232  -1.660  0.00  0.00    -0.042 A 
ATOM     12  C   UNL     1       2.792  -1.370  -2.335  0.00  0.00    +0.027 A 
ATOM     13  C   UNL     1       3.954  -1.337  -3.125  0.00  0.00    +0.034 A 
ATOM     14  C   UNL     1       4.659  -0.130  -3.187  0.00  0.00    +0.023 A 
ATOM     15  C   UNL     1       4.212   1.007  -2.513  0.00  0.00    +0.002 A 
ATOM     16  C   UNL     1       3.045   0.958  -1.756  0.00  0.00    +0.004 A 
BRANCH  11  18
ATOM     17  C   UNL     1      -0.024  -1.205  -1.352  0.00  0.00    +0.013 C 
ATOM     18  C   UNL     1       1.055  -0.259  -0.801  0.00  0.00    +0.025 C 
BRANCH  18  19
ATOM     19  C   UNL     1       1.444  -0.614   0.642  0.00  0.00    +0.103 C 
BRANCH  19  20
ATOM     20  C   UNL     1       0.285  -0.501   1.607  0.00  0.00    +0.211 C 
ATOM     21  O   UNL     1      -0.675   0.245   1.459  0.00  0.00    -0.276 OA
ATOM     22  N   UNL     1       0.400  -1.281   2.719  0.00  0.00    -0.329 N 
ATOM     23  H   UNL     1       1.216  -1.842   2.920  0.00  0.00    +0.145 HD
ATOM     24  H   UNL     1      -0.339  -1.228   3.409  0.00  0.00    +0.145 HD
ENDBRANCH  19  20
ENDBRANCH  18  19
ENDBRANCH  11  18
ENDBRANCH   1  13
BRANCH   8  25
ATOM     25  C   UNL     1       8.145   0.098  -5.999  0.00  0.00    +0.033 A 
ATOM     26  C   UNL     1       8.390   1.394  -6.463  0.00  0.00    +0.023 A 
ATOM     27  C   UNL     1       8.947   2.361  -5.619  0.00  0.00    +0.002 A 
ATOM     28  C   UNL     1       9.282   2.039  -4.303  0.00  0.00    +0.012 A 
ATOM     29  C   UNL     1       9.061   0.746  -3.818  0.00  0.00    +0.057 A 
ATOM     30  C   UNL     1       8.500  -0.211  -4.677  0.00  0.00    +0.035 A 
BRANCH  29  31
ATOM     31  C   UNL     1       9.411   0.354  -2.405  0.00  0.00    +0.417 C 
ATOM     32  F   UNL     1       9.963   1.368  -1.682  0.00  0.00    -0.166 F 
ATOM     33  F   UNL     1       8.330  -0.065  -1.690  0.00  0.00    -0.166 F 
ATOM     34  F   UNL     1      10.312  -0.668  -2.355  0.00  0.00    -0.166 F 
ENDBRANCH  29  31
ENDBRANCH   8  25
TORSDOF 6
