REMARK  Name = L5
REMARK  1 active torsions:
REMARK  status: ('A' for Active; 'I' for Inactive)
REMARK    1  A    between atoms: C_8  and  N_16
REMARK                            x       y       z     vdW  Elec       q    Type
REMARK                         _______ _______ _______ _____ _____    ______ ____
ROOT
ATOM      1  C   UNL     1       3.074  -1.412   0.048  0.00  0.00    +0.001 A 
ATOM      2  C   UNL     1       3.661  -0.157  -0.001  0.00  0.00    +0.001 A 
ATOM      3  C   UNL     1       2.846   0.964  -0.013  0.00  0.00    +0.014 A 
ATOM      4  C   UNL     1       1.446   0.824  -0.003  0.00  0.00    +0.047 A 
ATOM      5  C   UNL     1       0.807  -0.440   0.031  0.00  0.00    -0.000 A 
ATOM      6  C   UNL     1       1.676  -1.546   0.086  0.00  0.00    +0.009 A 
ATOM      7  C   UNL     1      -0.691  -0.503   0.009  0.00  0.00    +0.046 A 
ATOM      8  C   UNL     1      -1.525  -1.651   0.009  0.00  0.00    +0.037 A 
ATOM      9  C   UNL     1      -2.924  -1.494   0.047  0.00  0.00    +0.043 A 
ATOM     10  C   UNL     1      -3.474  -0.231  -0.002  0.00  0.00    +0.115 A 
ATOM     11  N   UNL     1      -2.733   0.882  -0.045  0.00  0.00    -0.237 NA
ATOM     12  C   UNL     1      -1.393   0.722  -0.026  0.00  0.00    +0.143 A 
ATOM     13  N   UNL     1      -0.707   1.930  -0.035  0.00  0.00    -0.306 N 
ATOM     14  C   UNL     1       0.644   2.069  -0.021  0.00  0.00    +0.258 A 
ATOM     15  O   UNL     1       1.172   3.178  -0.024  0.00  0.00    -0.267 OA
ATOM     16  H   UNL     1      -1.273   2.766  -0.046  0.00  0.00    +0.170 HD
ENDROOT
BRANCH   8  17
ATOM     17  N   UNL     1      -1.063  -2.982   0.117  0.00  0.00    -0.357 N 
ATOM     18  H   UNL     1      -0.291  -3.183  -0.507  0.00  0.00    +0.142 HD
ATOM     19  H   UNL     1      -1.791  -3.680  -0.013  0.00  0.00    +0.142 HD
ENDBRANCH   8  17
TORSDOF 1
