REMARK  Name = L87
REMARK  11 active torsions:
REMARK  status: ('A' for Active; 'I' for Inactive)
REMARK    1  A    between atoms: C_1  and  C_2
REMARK    2  A    between atoms: C_4  and  C_7
REMARK    3  A    between atoms: C_7  and  N_8
REMARK    4  A    between atoms: N_11  and  C_14
REMARK    5  A    between atoms: C_22  and  C_24
REMARK    6  A    between atoms: C_26  and  O_30
REMARK    7  A    between atoms: O_30  and  C_31
REMARK    8  A    between atoms: C_31  and  C_32
REMARK    9  A    between atoms: C_32  and  N_33
REMARK   10  A    between atoms: N_33  and  C_34
REMARK   11  A    between atoms: N_33  and  C_35
REMARK                            x       y       z     vdW  Elec       q    Type
REMARK                         _______ _______ _______ _____ _____    ______ ____
ROOT
ATOM      1  C   UNL     1      -1.033  -6.969   0.500  0.00  0.00    +0.077 A 
ATOM      2  C   UNL     1      -0.580  -7.976  -0.387  0.00  0.00    +0.108 A 
ATOM      3  C   UNL     1      -0.482  -9.316  -0.057  0.00  0.00    +0.180 A 
ATOM      4  N   UNL     1      -0.815  -9.820   1.154  0.00  0.00    -0.233 NA
ATOM      5  C   UNL     1      -1.246  -8.878   2.018  0.00  0.00    +0.135 A 
ATOM      6  C   UNL     1      -1.369  -7.506   1.760  0.00  0.00    +0.082 A 
ATOM      7 CL   UNL     1      -1.832  -6.564   3.148  0.00  0.00    -0.080 Cl
ATOM      8  N   UNL     1       0.005 -10.066  -1.093  0.00  0.00    -0.208 NA
ATOM      9  C   UNL     1       0.176  -9.218  -2.089  0.00  0.00    +0.141 A 
ATOM     10  N   UNL     1      -0.169  -7.954  -1.685  0.00  0.00    -0.335 N 
ATOM     11  H   UNL     1      -0.081  -7.133  -2.263  0.00  0.00    +0.167 HD
ENDROOT
BRANCH   1  15
ATOM     12  N   UNL     1      -0.673  -2.841   0.038  0.00  0.00    -0.294 NA
ATOM     13  C   UNL     1      -1.488  -3.409   1.133  0.00  0.00    +0.103 C 
ATOM     14  C   UNL     1      -2.132  -4.710   0.609  0.00  0.00    +0.120 C 
ATOM     15  N   UNL     1      -1.079  -5.636   0.141  0.00  0.00    -0.325 N 
ATOM     16  C   UNL     1      -0.099  -5.043  -0.785  0.00  0.00    +0.120 C 
ATOM     17  C   UNL     1       0.461  -3.732  -0.211  0.00  0.00    +0.103 C 
BRANCH  12  18
ATOM     18  C   UNL     1      -0.327  -1.440   0.189  0.00  0.00    +0.143 C 
BRANCH  18  22
ATOM     19  C   UNL     1      -4.638   0.825  -1.339  0.00  0.00    +0.089 C 
ATOM     20  C   UNL     1      -3.452   0.280  -0.659  0.00  0.00    +0.135 A 
ATOM     21  C   UNL     1      -2.539  -0.687  -0.987  0.00  0.00    +0.072 A 
ATOM     22  C   UNL     1      -1.579  -0.627   0.055  0.00  0.00    +0.098 A 
ATOM     23  N   UNL     1      -1.937   0.257   0.993  0.00  0.00    -0.082 NA
ATOM     24  O   UNL     1      -3.116   0.827   0.539  0.00  0.00    -0.360 OA
ENDBRANCH  18  22
ENDBRANCH  12  18
ENDBRANCH   1  15
BRANCH   9  25
ATOM     25  C   UNL     1       0.666  -9.510  -3.436  0.00  0.00    +0.021 A 
ATOM     26  C   UNL     1       1.464 -10.637  -3.675  0.00  0.00    +0.057 A 
ATOM     27  C   UNL     1       1.956 -10.904  -4.958  0.00  0.00    +0.121 A 
ATOM     28  C   UNL     1       1.626 -10.047  -6.012  0.00  0.00    +0.046 A 
ATOM     29  C   UNL     1       0.824  -8.929  -5.787  0.00  0.00    +0.004 A 
ATOM     30  C   UNL     1       0.348  -8.663  -4.507  0.00  0.00    +0.012 A 
BRANCH  27  31
ATOM     31  O   UNL     1       2.704 -12.047  -5.091  0.00  0.00    -0.491 OA
BRANCH  31  32
ATOM     32  C   UNL     1       3.695 -11.998  -6.127  0.00  0.00    +0.244 C 
BRANCH  32  33
ATOM     33  C   UNL     1       4.497 -13.312  -6.155  0.00  0.00    +0.124 C 
BRANCH  33  34
ATOM     34  N   UNL     1       5.530 -13.352  -7.214  0.00  0.00    -0.305 NA
ATOM     35  C   UNL     1       6.538 -12.303  -7.045  0.00  0.00    +0.104 C 
ATOM     36  C   UNL     1       6.186 -14.662  -7.232  0.00  0.00    +0.104 C 
ENDBRANCH  33  34
ENDBRANCH  32  33
ENDBRANCH  31  32
ENDBRANCH  27  31
ENDBRANCH   9  25
TORSDOF 8
