REMARK  Name = L33
REMARK  6 active torsions:
REMARK  status: ('A' for Active; 'I' for Inactive)
REMARK    1  A    between atoms: C_1  and  C_2
REMARK    2  A    between atoms: N_7  and  C_8
REMARK    3  A    between atoms: N_14  and  C_15
REMARK    4  A    between atoms: C_18  and  N_21
REMARK    5  A    between atoms: C_22  and  C_24
REMARK    6  A    between atoms: N_28  and  C_31
REMARK                            x       y       z     vdW  Elec       q    Type
REMARK                         _______ _______ _______ _____ _____    ______ ____
ROOT
ATOM      1  C   UNL     1       2.344   2.956  -0.008  0.00  0.00    +0.131 A 
ATOM      2  C   UNL     1       1.663   3.483   1.067  0.00  0.00    +0.087 A 
ATOM      3  C   UNL     1       1.422   4.838   1.095  0.00  0.00    +0.128 A 
ATOM      4  N   UNL     1       1.837   5.622   0.102  0.00  0.00    -0.199 NA
ATOM      5  C   UNL     1       2.487   5.056  -0.927  0.00  0.00    +0.223 A 
ATOM      6  N   UNL     1       2.756   3.744  -1.015  0.00  0.00    -0.199 NA
ATOM      7  N   UNL     1       2.922   5.866  -1.988  0.00  0.00    -0.284 N 
ATOM      8  N   UNL     1       0.837   5.379   2.222  0.00  0.00    -0.313 N 
ATOM      9  C   UNL     1       1.003   6.804   2.521  0.00  0.00    +0.122 C 
ATOM     10  C   UNL     1       0.887   6.967   4.063  0.00  0.00    +0.103 C 
ATOM     11  N   UNL     1      -0.375   6.409   4.623  0.00  0.00    -0.302 NA
ATOM     12  C   UNL     1      -0.556   5.007   4.178  0.00  0.00    +0.103 C 
ATOM     13  C   UNL     1      -0.465   4.856   2.647  0.00  0.00    +0.122 C 
ATOM     14  C   UNL     1      -0.357   6.472   6.085  0.00  0.00    +0.105 C 
ATOM     15  H   UNL     1       3.550   5.311  -2.555  0.00  0.00    +0.155 HD
ENDROOT
BRANCH   1  22
ATOM     16  C   UNL     1       6.329   0.048  -2.887  0.00  0.00    +0.065 C 
ATOM     17  C   UNL     1       5.236   0.213  -1.911  0.00  0.00    +0.035 A 
ATOM     18  C   UNL     1       4.388   1.266  -1.659  0.00  0.00    +0.068 A 
ATOM     19  C   UNL     1       3.587   0.854  -0.577  0.00  0.00    +0.146 A 
ATOM     20  N   UNL     1       3.874  -0.398  -0.207  0.00  0.00    -0.158 NA
ATOM     21  N   UNL     1       4.890  -0.751  -1.008  0.00  0.00    -0.280 N 
ATOM     22  N   UNL     1       2.661   1.585   0.063  0.00  0.00    -0.283 N 
ATOM     23  H   UNL     1       5.308  -1.666  -0.876  0.00  0.00    +0.189 HD
ATOM     24  H   UNL     1       2.153   1.081   0.777  0.00  0.00    +0.155 HD
ENDBRANCH   1  22
BRANCH   7  25
ATOM     25  C   UNL     1       3.300   7.217  -1.883  0.00  0.00    +0.034 A 
ATOM     26  C   UNL     1       3.853   7.742  -0.713  0.00  0.00    +0.025 A 
ATOM     27  C   UNL     1       4.237   9.082  -0.628  0.00  0.00    +0.025 A 
ATOM     28  C   UNL     1       4.098   9.932  -1.721  0.00  0.00    +0.033 A 
ATOM     29  C   UNL     1       3.555   9.415  -2.904  0.00  0.00    +0.025 A 
ATOM     30  C   UNL     1       3.180   8.064  -2.989  0.00  0.00    +0.025 A 
BRANCH  28  31
ATOM     31  N   UNL     1       4.497  11.288  -1.702  0.00  0.00    -0.286 N 
ATOM     32  C   UNL     1       5.126  11.947  -0.659  0.00  0.00    +0.214 C 
ATOM     33  O   UNL     1       5.413  11.485   0.442  0.00  0.00    -0.276 OA
ATOM     34  C   UNL     1       5.489  13.375  -0.975  0.00  0.00    +0.109 C 
ATOM     35  H   UNL     1       4.334  11.810  -2.553  0.00  0.00    +0.155 HD
ENDBRANCH  28  31
ENDBRANCH   7  25
TORSDOF 3
