REMARK  Name = L110
REMARK  9 active torsions:
REMARK  status: ('A' for Active; 'I' for Inactive)
REMARK    1  A    between atoms: C_1  and  C_2
REMARK    2  A    between atoms: C_2  and  C_3
REMARK    3  A    between atoms: C_2  and  C_4
REMARK    4  A    between atoms: C_6  and  C_9
REMARK    5  A    between atoms: C_9  and  N_10
REMARK    6  A    between atoms: N_13  and  C_16
REMARK    7  A    between atoms: C_24  and  C_26
REMARK    8  A    between atoms: C_29  and  O_32
REMARK    9  A    between atoms: O_32  and  C_33
REMARK                            x       y       z     vdW  Elec       q    Type
REMARK                         _______ _______ _______ _____ _____    ______ ____
ROOT
ATOM      1  C   UNL     1       2.002  -2.740  -1.593  0.00  0.00    +0.073 A 
ATOM      2  C   UNL     1       2.709  -3.138  -2.763  0.00  0.00    +0.108 A 
ATOM      3  C   UNL     1       2.354  -2.777  -4.060  0.00  0.00    +0.180 A 
ATOM      4  N   UNL     1       1.308  -1.986  -4.357  0.00  0.00    -0.233 NA
ATOM      5  C   UNL     1       0.649  -1.540  -3.273  0.00  0.00    +0.130 A 
ATOM      6  C   UNL     1       0.942  -1.849  -1.936  0.00  0.00    +0.059 A 
ATOM      7 BR   UNL     1      -0.127  -0.865  -0.693  0.00  0.00    -0.047 Br
ATOM      8  N   UNL     1       3.170  -3.339  -5.005  0.00  0.00    -0.208 NA
ATOM      9  C   UNL     1       4.034  -4.077  -4.340  0.00  0.00    +0.141 A 
ATOM     10  N   UNL     1       3.796  -3.952  -2.986  0.00  0.00    -0.335 N 
ATOM     11  H   UNL     1       4.329  -4.409  -2.269  0.00  0.00    +0.167 HD
ENDROOT
BRANCH   1  15
ATOM     12  N   UNL     1       2.915  -4.501   2.337  0.00  0.00    -0.294 NA
ATOM     13  C   UNL     1       1.536  -4.384   1.811  0.00  0.00    +0.103 C 
ATOM     14  C   UNL     1       1.269  -3.288   0.745  0.00  0.00    +0.120 C 
ATOM     15  N   UNL     1       2.285  -3.277  -0.334  0.00  0.00    -0.325 N 
ATOM     16  C   UNL     1       3.660  -3.266   0.199  0.00  0.00    +0.120 C 
ATOM     17  C   UNL     1       3.854  -4.449   1.193  0.00  0.00    +0.103 C 
BRANCH  12  18
ATOM     18  C   UNL     1       3.263  -3.470   3.327  0.00  0.00    +0.143 C 
BRANCH  18  21
ATOM     19  C   UNL     1       1.391  -2.852   6.276  0.00  0.00    +0.198 A 
ATOM     20  N   UNL     1       1.883  -2.444   5.125  0.00  0.00    -0.217 NA
ATOM     21  C   UNL     1       2.476  -3.571   4.592  0.00  0.00    +0.093 A 
ATOM     22  C   UNL     1       2.287  -4.631   5.447  0.00  0.00    +0.221 A 
ATOM     23  O   UNL     1       1.587  -4.184   6.533  0.00  0.00    -0.447 OA
BRANCH  19  25
ATOM     24  C   UNL     1       1.783  -1.258   8.114  0.00  0.00    +0.017 C 
ATOM     25  C   UNL     1       0.724  -2.035   7.330  0.00  0.00    +0.069 C 
ATOM     26  C   UNL     1      -0.298  -1.078   6.705  0.00  0.00    +0.017 C 
ENDBRANCH  19  25
ENDBRANCH  18  21
ENDBRANCH  12  18
ENDBRANCH   1  15
BRANCH   9  27
ATOM     27  C   UNL     1       5.082  -4.943  -4.916  0.00  0.00    +0.018 A 
ATOM     28  C   UNL     1       5.166  -5.114  -6.307  0.00  0.00    +0.015 A 
ATOM     29  C   UNL     1       6.113  -5.982  -6.871  0.00  0.00    +0.046 A 
ATOM     30  C   UNL     1       7.010  -6.680  -6.063  0.00  0.00    +0.120 A 
ATOM     31  C   UNL     1       6.947  -6.512  -4.683  0.00  0.00    +0.046 A 
ATOM     32  C   UNL     1       5.994  -5.651  -4.117  0.00  0.00    +0.015 A 
BRANCH  30  33
ATOM     33  O   UNL     1       7.863  -7.520  -6.724  0.00  0.00    -0.495 OA
ATOM     34  C   UNL     1       9.068  -7.861  -6.046  0.00  0.00    +0.277 C 
ENDBRANCH  30  33
ENDBRANCH   9  27
TORSDOF 6
