REMARK  Name = L160
REMARK  6 active torsions:
REMARK  status: ('A' for Active; 'I' for Inactive)
REMARK    1  A    between atoms: C_1  and  N_2
REMARK    2  A    between atoms: N_2  and  C_3
REMARK    3  A    between atoms: N_2  and  C_4
REMARK    4  A    between atoms: C_7  and  C_10
REMARK    5  A    between atoms: C_16  and  N_19
REMARK    6  A    between atoms: N_22  and  C_25
REMARK                            x       y       z     vdW  Elec       q    Type
REMARK                         _______ _______ _______ _____ _____    ______ ____
ROOT
ATOM      1  C   UNL     1       5.517   0.849   4.723  0.00  0.00    +0.141 A 
ATOM      2  N   UNL     1       6.016  -0.018   5.582  0.00  0.00    -0.208 NA
ATOM      3  C   UNL     1       6.613   0.737   6.566  0.00  0.00    +0.180 A 
ATOM      4  N   UNL     1       7.277   0.233   7.625  0.00  0.00    -0.233 NA
ATOM      5  C   UNL     1       7.714   1.185   8.482  0.00  0.00    +0.130 A 
ATOM      6  C   UNL     1       7.515   2.565   8.372  0.00  0.00    +0.059 A 
ATOM      7  C   UNL     1       6.813   3.110   7.273  0.00  0.00    +0.073 A 
ATOM      8  C   UNL     1       6.423   2.096   6.363  0.00  0.00    +0.108 A 
ATOM      9  N   UNL     1       5.806   2.125   5.135  0.00  0.00    -0.335 N 
ATOM     10 BR   UNL     1       8.116   3.561   9.884  0.00  0.00    -0.047 Br
ATOM     11  H   UNL     1       5.531   2.956   4.634  0.00  0.00    +0.167 HD
ENDROOT
BRANCH   1  15
ATOM     12  C   UNL     1       3.340  -0.024   1.078  0.00  0.00    +0.029 A 
ATOM     13  C   UNL     1       3.256  -0.842   2.218  0.00  0.00    +0.024 A 
ATOM     14  C   UNL     1       3.955  -0.558   3.403  0.00  0.00    +0.013 A 
ATOM     15  C   UNL     1       4.763   0.573   3.500  0.00  0.00    +0.017 A 
ATOM     16  C   UNL     1       4.828   1.425   2.393  0.00  0.00    +0.013 A 
ATOM     17  C   UNL     1       4.133   1.127   1.211  0.00  0.00    +0.024 A 
BRANCH  12  19
ATOM     18  C   UNL     1       1.829  -1.510  -0.204  0.00  0.00    +0.129 C 
ATOM     19  N   UNL     1       2.673  -0.325  -0.107  0.00  0.00    -0.336 N 
ATOM     20  C   UNL     1       3.072   0.319  -1.354  0.00  0.00    +0.129 C 
ENDBRANCH  12  19
ENDBRANCH   1  15
BRANCH   7  21
ATOM     21  N   UNL     1       6.435   4.426   7.099  0.00  0.00    -0.324 N 
ATOM     22  C   UNL     1       5.196   4.757   6.367  0.00  0.00    +0.124 C 
ATOM     23  C   UNL     1       4.337   5.751   7.151  0.00  0.00    +0.124 C 
ATOM     24  N   UNL     1       5.111   6.951   7.468  0.00  0.00    -0.327 N 
ATOM     25  C   UNL     1       6.386   6.691   8.164  0.00  0.00    +0.124 C 
ATOM     26  C   UNL     1       7.243   5.626   7.419  0.00  0.00    +0.124 C 
BRANCH  24  27
ATOM     27  C   UNL     1       4.700   8.181   6.995  0.00  0.00    +0.030 A 
ATOM     28  C   UNL     1       3.334   8.469   6.831  0.00  0.00    +0.023 A 
ATOM     29  C   UNL     1       2.885   9.678   6.304  0.00  0.00    +0.002 A 
ATOM     30  C   UNL     1       3.803  10.656   5.944  0.00  0.00    +0.000 A 
ATOM     31  C   UNL     1       5.160  10.415   6.119  0.00  0.00    +0.002 A 
ATOM     32  C   UNL     1       5.602   9.191   6.641  0.00  0.00    +0.023 A 
ENDBRANCH  24  27
ENDBRANCH   7  21
TORSDOF 4
