REMARK  Name = L121
REMARK  7 active torsions:
REMARK  status: ('A' for Active; 'I' for Inactive)
REMARK    1  A    between atoms: C_1  and  C_2
REMARK    2  A    between atoms: C_4  and  C_7
REMARK    3  A    between atoms: C_7  and  N_8
REMARK    4  A    between atoms: N_11  and  C_14
REMARK    5  A    between atoms: C_22  and  C_24
REMARK    6  A    between atoms: N_26  and  C_30
REMARK    7  A    between atoms: C_28  and  C_29
REMARK                            x       y       z     vdW  Elec       q    Type
REMARK                         _______ _______ _______ _____ _____    ______ ____
ROOT
ATOM      1  C   UNL     1      -1.095  -7.005   0.552  0.00  0.00    +0.077 A 
ATOM      2  C   UNL     1       0.117  -7.546   1.025  0.00  0.00    +0.108 A 
ATOM      3  C   UNL     1       0.286  -8.882   1.375  0.00  0.00    +0.180 A 
ATOM      4  N   UNL     1      -0.694  -9.803   1.292  0.00  0.00    -0.233 NA
ATOM      5  C   UNL     1      -1.871  -9.306   0.861  0.00  0.00    +0.135 A 
ATOM      6  C   UNL     1      -2.123  -7.981   0.501  0.00  0.00    +0.082 A 
ATOM      7 CL   UNL     1      -3.776  -7.592   0.138  0.00  0.00    -0.080 Cl
ATOM      8  N   UNL     1       1.551  -9.137   1.826  0.00  0.00    -0.208 NA
ATOM      9  C   UNL     1       2.172  -7.979   1.785  0.00  0.00    +0.144 A 
ATOM     10  N   UNL     1       1.362  -7.014   1.251  0.00  0.00    -0.335 N 
ATOM     11  H   UNL     1       1.642  -6.064   1.078  0.00  0.00    +0.167 HD
ENDROOT
BRANCH   9  12
ATOM     12  C   UNL     1       3.556  -7.743   2.260  0.00  0.00    +0.058 A 
ATOM     13  C   UNL     1       4.181  -6.521   2.368  0.00  0.00    +0.119 A 
ATOM     14  N   UNL     1       5.414  -6.787   2.890  0.00  0.00    -0.274 N 
ATOM     15  N   UNL     1       5.642  -8.094   3.094  0.00  0.00    -0.176 NA
ATOM     16  C   UNL     1       4.498  -8.688   2.718  0.00  0.00    +0.071 A 
ATOM     17  C   UNL     1       4.360 -10.166   2.792  0.00  0.00    +0.068 C 
ATOM     18  C   UNL     1       6.438  -5.829   3.235  0.00  0.00    +0.172 C 
ENDBRANCH   9  12
BRANCH   1  22
ATOM     19  N   UNL     1      -1.956  -2.917  -0.130  0.00  0.00    -0.294 NA
ATOM     20  C   UNL     1      -2.806  -3.994  -0.695  0.00  0.00    +0.103 C 
ATOM     21  C   UNL     1      -1.917  -5.225  -0.995  0.00  0.00    +0.120 C 
ATOM     22  N   UNL     1      -1.266  -5.668   0.257  0.00  0.00    -0.325 N 
ATOM     23  C   UNL     1      -0.515  -4.605   0.943  0.00  0.00    +0.120 C 
ATOM     24  C   UNL     1      -1.419  -3.372   1.161  0.00  0.00    +0.103 C 
BRANCH  19  25
ATOM     25  C   UNL     1      -2.644  -1.630  -0.042  0.00  0.00    +0.143 C 
BRANCH  25  29
ATOM     26  C   UNL     1      -2.044  -0.059  -4.867  0.00  0.00    +0.089 C 
ATOM     27  C   UNL     1      -2.455  -0.441  -3.506  0.00  0.00    +0.135 A 
ATOM     28  C   UNL     1      -1.801  -0.983  -2.431  0.00  0.00    +0.072 A 
ATOM     29  C   UNL     1      -2.795  -1.076  -1.425  0.00  0.00    +0.098 A 
ATOM     30  N   UNL     1      -3.977  -0.628  -1.869  0.00  0.00    -0.082 NA
ATOM     31  O   UNL     1      -3.758  -0.233  -3.179  0.00  0.00    -0.360 OA
ENDBRANCH  25  29
ENDBRANCH  19  25
ENDBRANCH   1  22
TORSDOF 4
