REMARK  Name = L109
REMARK  7 active torsions:
REMARK  status: ('A' for Active; 'I' for Inactive)
REMARK    1  A    between atoms: C_1  and  C_2
REMARK    2  A    between atoms: C_4  and  C_7
REMARK    3  A    between atoms: C_7  and  N_8
REMARK    4  A    between atoms: N_11  and  C_14
REMARK    5  A    between atoms: C_22  and  C_24
REMARK    6  A    between atoms: C_27  and  N_30
REMARK    7  A    between atoms: C_36  and  C_38
REMARK                            x       y       z     vdW  Elec       q    Type
REMARK                         _______ _______ _______ _____ _____    ______ ____
ROOT
ATOM      1  C   UNL     1      -1.033  -7.007   0.477  0.00  0.00    +0.073 A 
ATOM      2  C   UNL     1      -0.544  -7.998  -0.399  0.00  0.00    +0.108 A 
ATOM      3  C   UNL     1      -0.454  -9.349  -0.089  0.00  0.00    +0.180 A 
ATOM      4  N   UNL     1      -0.790  -9.860   1.110  0.00  0.00    -0.233 NA
ATOM      5  C   UNL     1      -1.259  -8.939   1.974  0.00  0.00    +0.130 A 
ATOM      6  C   UNL     1      -1.417  -7.569   1.723  0.00  0.00    +0.059 A 
ATOM      7 BR   UNL     1      -2.283  -6.609   3.127  0.00  0.00    -0.047 Br
ATOM      8  N   UNL     1       0.014 -10.082  -1.141  0.00  0.00    -0.208 NA
ATOM      9  C   UNL     1       0.223  -9.216  -2.111  0.00  0.00    +0.141 A 
ATOM     10  N   UNL     1      -0.005  -7.944  -1.658  0.00  0.00    -0.335 N 
ATOM     11  H   UNL     1       0.180  -7.104  -2.179  0.00  0.00    +0.167 HD
ENDROOT
BRANCH   1  15
ATOM     12  N   UNL     1      -0.610  -2.987  -0.801  0.00  0.00    -0.294 NA
ATOM     13  C   UNL     1      -0.056  -3.428   0.497  0.00  0.00    +0.103 C 
ATOM     14  C   UNL     1      -0.892  -4.584   1.086  0.00  0.00    +0.120 C 
ATOM     15  N   UNL     1      -1.032  -5.679   0.109  0.00  0.00    -0.325 N 
ATOM     16  C   UNL     1      -1.497  -5.224  -1.219  0.00  0.00    +0.120 C 
ATOM     17  C   UNL     1      -0.554  -4.111  -1.744  0.00  0.00    +0.103 C 
BRANCH  12  18
ATOM     18  C   UNL     1       0.002  -1.751  -1.286  0.00  0.00    +0.143 C 
BRANCH  18  22
ATOM     19  C   UNL     1      -2.845   1.604   1.315  0.00  0.00    +0.089 C 
ATOM     20  C   UNL     1      -1.828   0.769   0.655  0.00  0.00    +0.135 A 
ATOM     21  C   UNL     1      -1.883  -0.346  -0.138  0.00  0.00    +0.072 A 
ATOM     22  C   UNL     1      -0.528  -0.617  -0.460  0.00  0.00    +0.098 A 
ATOM     23  N   UNL     1       0.294   0.266   0.123  0.00  0.00    -0.082 NA
ATOM     24  O   UNL     1      -0.529   1.135   0.824  0.00  0.00    -0.360 OA
ENDBRANCH  18  22
ENDBRANCH  12  18
ENDBRANCH   1  15
BRANCH   9  25
ATOM     25  C   UNL     1       0.687  -9.512  -3.460  0.00  0.00    +0.017 A 
ATOM     26  C   UNL     1       0.365  -8.708  -4.559  0.00  0.00    +0.013 A 
ATOM     27  C   UNL     1       0.843  -9.023  -5.839  0.00  0.00    +0.024 A 
ATOM     28  C   UNL     1       1.643 -10.153  -6.062  0.00  0.00    +0.030 A 
ATOM     29  C   UNL     1       1.941 -10.952  -4.949  0.00  0.00    +0.024 A 
ATOM     30  C   UNL     1       1.472 -10.644  -3.671  0.00  0.00    +0.013 A 
BRANCH  28  31
ATOM     31  N   UNL     1       2.142 -10.474  -7.304  0.00  0.00    -0.327 N 
ATOM     32  C   UNL     1       2.412  -9.472  -8.348  0.00  0.00    +0.124 C 
ATOM     33  C   UNL     1       3.770  -9.787  -9.012  0.00  0.00    +0.126 C 
ATOM     34  N   UNL     1       3.852 -11.191  -9.468  0.00  0.00    -0.299 N 
ATOM     35  C   UNL     1       3.533 -12.169  -8.414  0.00  0.00    +0.126 C 
ATOM     36  C   UNL     1       2.167 -11.868  -7.773  0.00  0.00    +0.124 C 
ATOM     37  C   UNL     1       4.261 -11.447 -10.759  0.00  0.00    +0.213 C 
ATOM     38  O   UNL     1       4.527 -10.535 -11.547  0.00  0.00    -0.276 OA
ATOM     39  C   UNL     1       4.378 -12.868 -11.245  0.00  0.00    +0.109 C 
ENDBRANCH  28  31
ENDBRANCH   9  25
TORSDOF 5
