REMARK  Name = L49
REMARK  6 active torsions:
REMARK  status: ('A' for Active; 'I' for Inactive)
REMARK    1  A    between atoms: C_1  and  C_2
REMARK    2  A    between atoms: C_10  and  S_20
REMARK    3  A    between atoms: C_12  and  C_14
REMARK    4  A    between atoms: S_20  and  C_21
REMARK    5  A    between atoms: C_24  and  N_27
REMARK    6  A    between atoms: C_28  and  C_30
REMARK                            x       y       z     vdW  Elec       q    Type
REMARK                         _______ _______ _______ _____ _____    ______ ____
ROOT
ATOM      1  C   UNL     1       6.178  -0.030  -2.913  0.00  0.00    +0.065 C 
ATOM      2  C   UNL     1       5.109   0.161  -1.912  0.00  0.00    +0.035 A 
ATOM      3  C   UNL     1       4.256   1.214  -1.686  0.00  0.00    +0.068 A 
ATOM      4  C   UNL     1       3.497   0.854  -0.552  0.00  0.00    +0.146 A 
ATOM      5  N   UNL     1       3.807  -0.377  -0.135  0.00  0.00    -0.158 NA
ATOM      6  N   UNL     1       4.798  -0.763  -0.957  0.00  0.00    -0.280 N 
ATOM      7  N   UNL     1       2.591   1.622   0.088  0.00  0.00    -0.283 N 
ATOM      8  C   UNL     1       2.406   3.018   0.036  0.00  0.00    +0.129 A 
ATOM      9  N   UNL     1       2.937   3.748  -0.957  0.00  0.00    -0.206 NA
ATOM     10  C   UNL     1       2.772   5.075  -0.921  0.00  0.00    +0.195 A 
ATOM     11  N   UNL     1       2.121   5.738   0.041  0.00  0.00    -0.221 NA
ATOM     12  C   UNL     1       1.594   5.000   1.038  0.00  0.00    +0.077 A 
ATOM     13  C   UNL     1       1.695   3.621   1.055  0.00  0.00    +0.072 A 
ATOM     14  H   UNL     1       5.226  -1.669  -0.799  0.00  0.00    +0.189 HD
ATOM     15  H   UNL     1       2.159   1.171   0.883  0.00  0.00    +0.155 HD
ENDROOT
BRANCH  12  16
ATOM     16  C   UNL     1       0.924   5.764   2.106  0.00  0.00    +0.001 A 
ATOM     17  C   UNL     1       0.252   6.964   1.813  0.00  0.00    +0.010 A 
ATOM     18  C   UNL     1      -0.369   7.713   2.816  0.00  0.00    +0.001 A 
ATOM     19  C   UNL     1      -0.327   7.277   4.137  0.00  0.00    +0.000 A 
ATOM     20  C   UNL     1       0.332   6.093   4.455  0.00  0.00    +0.001 A 
ATOM     21  C   UNL     1       0.952   5.346   3.450  0.00  0.00    +0.010 A 
ENDBRANCH  12  16
BRANCH  10  22
ATOM     22  S   UNL     1       3.359   6.021  -2.302  0.00  0.00    -0.050 S 
BRANCH  22  23
ATOM     23  C   UNL     1       5.048   6.349  -1.843  0.00  0.00    +0.016 A 
ATOM     24  C   UNL     1       6.073   5.923  -2.689  0.00  0.00    +0.017 A 
ATOM     25  C   UNL     1       7.410   6.230  -2.407  0.00  0.00    +0.024 A 
ATOM     26  C   UNL     1       7.751   6.974  -1.277  0.00  0.00    +0.033 A 
ATOM     27  C   UNL     1       6.722   7.407  -0.430  0.00  0.00    +0.024 A 
ATOM     28  C   UNL     1       5.381   7.100  -0.712  0.00  0.00    +0.017 A 
BRANCH  26  29
ATOM     29  N   UNL     1       9.081   7.323  -0.942  0.00  0.00    -0.286 N 
ATOM     30  C   UNL     1      10.226   7.002  -1.651  0.00  0.00    +0.214 C 
ATOM     31  O   UNL     1      10.289   6.364  -2.698  0.00  0.00    -0.276 OA
ATOM     32  C   UNL     1      11.497   7.514  -1.021  0.00  0.00    +0.109 C 
ATOM     33  H   UNL     1       9.198   7.864  -0.094  0.00  0.00    +0.155 HD
ENDBRANCH  26  29
ENDBRANCH  22  23
ENDBRANCH  10  22
TORSDOF 4
