REMARK  Name = L124
REMARK  6 active torsions:
REMARK  status: ('A' for Active; 'I' for Inactive)
REMARK    1  A    between atoms: C_1  and  O_2
REMARK    2  A    between atoms: O_2  and  C_3
REMARK    3  A    between atoms: C_6  and  C_9
REMARK    4  A    between atoms: C_15  and  N_18
REMARK    5  A    between atoms: N_21  and  C_24
REMARK    6  A    between atoms: C_24  and  C_25
REMARK                            x       y       z     vdW  Elec       q    Type
REMARK                         _______ _______ _______ _____ _____    ______ ____
ROOT
ATOM      1  C   UNL     1       9.468   3.051  -5.734  0.00  0.00    +0.141 A 
ATOM      2  N   UNL     1       9.024   4.222  -5.330  0.00  0.00    -0.208 NA
ATOM      3  C   UNL     1       7.834   4.405  -5.976  0.00  0.00    +0.180 A 
ATOM      4  N   UNL     1       7.071   5.509  -5.867  0.00  0.00    -0.233 NA
ATOM      5  C   UNL     1       5.966   5.476  -6.637  0.00  0.00    +0.130 A 
ATOM      6  C   UNL     1       5.574   4.431  -7.483  0.00  0.00    +0.059 A 
ATOM      7  C   UNL     1       6.352   3.250  -7.599  0.00  0.00    +0.073 A 
ATOM      8  C   UNL     1       7.508   3.324  -6.784  0.00  0.00    +0.108 A 
ATOM      9  N   UNL     1       8.534   2.449  -6.537  0.00  0.00    -0.335 N 
ATOM     10 BR   UNL     1       4.041   4.830  -8.552  0.00  0.00    -0.047 Br
ATOM     11  H   UNL     1       8.618   1.519  -6.913  0.00  0.00    +0.167 HD
ENDROOT
BRANCH   1  15
ATOM     12  C   UNL     1      13.226   1.268  -4.738  0.00  0.00    +0.120 A 
ATOM     13  C   UNL     1      12.564   2.091  -3.825  0.00  0.00    +0.046 A 
ATOM     14  C   UNL     1      11.332   2.666  -4.149  0.00  0.00    +0.015 A 
ATOM     15  C   UNL     1      10.746   2.428  -5.396  0.00  0.00    +0.018 A 
ATOM     16  C   UNL     1      11.423   1.613  -6.314  0.00  0.00    +0.015 A 
ATOM     17  C   UNL     1      12.656   1.037  -5.989  0.00  0.00    +0.046 A 
BRANCH  12  19
ATOM     18  C   UNL     1      14.878  -0.411  -4.949  0.00  0.00    +0.277 C 
ATOM     19  O   UNL     1      14.436   0.787  -4.321  0.00  0.00    -0.495 OA
ENDBRANCH  12  19
ENDBRANCH   1  15
BRANCH   7  20
ATOM     20  N   UNL     1       6.099   2.166  -8.415  0.00  0.00    -0.325 N 
ATOM     21  C   UNL     1       4.756   1.606  -8.658  0.00  0.00    +0.120 C 
ATOM     22  C   UNL     1       4.535   1.395 -10.183  0.00  0.00    +0.103 C 
ATOM     23  N   UNL     1       5.588   0.581 -10.857  0.00  0.00    -0.295 NA
ATOM     24  C   UNL     1       6.888   1.227 -10.567  0.00  0.00    +0.103 C 
ATOM     25  C   UNL     1       7.190   1.424  -9.068  0.00  0.00    +0.120 C 
BRANCH  23  26
ATOM     26  C   UNL     1       5.516  -0.816 -10.398  0.00  0.00    +0.119 C 
BRANCH  26  27
ATOM     27  C   UNL     1       6.566  -1.738 -10.982  0.00  0.00    -0.033 A 
ATOM     28  C   UNL     1       7.449  -2.429 -10.127  0.00  0.00    +0.006 A 
ATOM     29  C   UNL     1       8.383  -3.326 -10.655  0.00  0.00    +0.020 A 
ATOM     30  C   UNL     1       8.437  -3.541 -12.029  0.00  0.00    +0.041 A 
ATOM     31  C   UNL     1       7.578  -2.861 -12.889  0.00  0.00    +0.020 A 
ATOM     32  C   UNL     1       6.646  -1.955 -12.360  0.00  0.00    +0.006 A 
ATOM     33 CL   UNL     1       9.567  -4.667 -12.673  0.00  0.00    -0.084 Cl
ENDBRANCH  26  27
ENDBRANCH  23  26
ENDBRANCH   7  20
TORSDOF 5
