REMARK  Name = L188
REMARK  5 active torsions:
REMARK  status: ('A' for Active; 'I' for Inactive)
REMARK    1  A    between atoms: C_3  and  C_4
REMARK    2  A    between atoms: N_6  and  C_7
REMARK    3  A    between atoms: C_11  and  N_13
REMARK    4  A    between atoms: N_20  and  C_21
REMARK    5  A    between atoms: C_25  and  C_27
REMARK                            x       y       z     vdW  Elec       q    Type
REMARK                         _______ _______ _______ _____ _____    ______ ____
ROOT
ATOM      1  N   UNL     1       3.829  -4.086   4.687  0.00  0.00    -0.299 N 
ATOM      2  C   UNL     1       2.781  -4.931   4.260  0.00  0.00    +0.128 A 
ATOM      3  N   UNL     1       1.685  -4.369   3.739  0.00  0.00    -0.199 NA
ATOM      4  C   UNL     1       0.740  -5.148   3.211  0.00  0.00    +0.221 A 
ATOM      5  N   UNL     1       0.815  -6.479   3.190  0.00  0.00    -0.223 NA
ATOM      6  C   UNL     1       1.888  -7.025   3.798  0.00  0.00    +0.118 A 
ATOM      7  C   UNL     1       2.904  -6.293   4.370  0.00  0.00    +0.063 A 
ATOM      8  N   UNL     1      -0.336  -4.533   2.574  0.00  0.00    -0.284 N 
ATOM      9  H   UNL     1       3.809  -4.013   5.699  0.00  0.00    +0.154 HD
ATOM     10  H   UNL     1      -0.805  -5.147   1.929  0.00  0.00    +0.155 HD
ENDROOT
BRANCH   1  15
ATOM     11  C   UNL     1       4.366  -1.472   2.057  0.00  0.00    +0.035 A 
ATOM     12  C   UNL     1       4.991  -0.489   2.823  0.00  0.00    +0.023 A 
ATOM     13  C   UNL     1       5.194  -0.670   4.187  0.00  0.00    +0.004 A 
ATOM     14  C   UNL     1       4.793  -1.851   4.803  0.00  0.00    +0.023 A 
ATOM     15  C   UNL     1       4.138  -2.845   4.070  0.00  0.00    +0.034 A 
ATOM     16  C   UNL     1       3.931  -2.640   2.688  0.00  0.00    +0.046 A 
BRANCH  11  19
ATOM     17  C   UNL     1       4.867  -0.447  -0.139  0.00  0.00    +0.220 C 
ATOM     18  O   UNL     1       5.783   0.292   0.210  0.00  0.00    -0.275 OA
ATOM     19  N   UNL     1       4.161  -1.321   0.664  0.00  0.00    -0.285 N 
ATOM     20  H   UNL     1       3.529  -1.975   0.220  0.00  0.00    +0.155 HD
BRANCH  17  23
ATOM     21  C   UNL     1       5.576  -0.730  -2.618  0.00  0.00    +0.013 C 
ATOM     22  C   UNL     1       4.962   0.633  -2.492  0.00  0.00    +0.013 C 
ATOM     23  C   UNL     1       4.499  -0.486  -1.582  0.00  0.00    +0.075 C 
ENDBRANCH  17  23
ENDBRANCH  11  19
ENDBRANCH   1  15
BRANCH   8  24
ATOM     24  C   UNL     1      -0.888  -3.275   2.842  0.00  0.00    +0.034 A 
ATOM     25  C   UNL     1      -0.839  -2.712   4.125  0.00  0.00    +0.023 A 
ATOM     26  C   UNL     1      -1.315  -1.426   4.373  0.00  0.00    +0.002 A 
ATOM     27  C   UNL     1      -1.838  -0.671   3.329  0.00  0.00    +0.012 A 
ATOM     28  C   UNL     1      -1.893  -1.199   2.031  0.00  0.00    +0.057 A 
ATOM     29  C   UNL     1      -1.415  -2.504   1.801  0.00  0.00    +0.035 A 
BRANCH  28  30
ATOM     30  C   UNL     1      -2.443  -0.382   0.890  0.00  0.00    +0.417 C 
ATOM     31  F   UNL     1      -2.876   0.855   1.265  0.00  0.00    -0.166 F 
ATOM     32  F   UNL     1      -1.526  -0.171  -0.095  0.00  0.00    -0.166 F 
ATOM     33  F   UNL     1      -3.507  -0.980   0.287  0.00  0.00    -0.166 F 
ENDBRANCH  28  30
ENDBRANCH   8  24
TORSDOF 5
