REMARK  Name = L153
REMARK  7 active torsions:
REMARK  status: ('A' for Active; 'I' for Inactive)
REMARK    1  A    between atoms: C_1  and  N_2
REMARK    2  A    between atoms: N_2  and  C_3
REMARK    3  A    between atoms: N_2  and  C_4
REMARK    4  A    between atoms: C_7  and  C_10
REMARK    5  A    between atoms: C_16  and  N_19
REMARK    6  A    between atoms: N_22  and  C_25
REMARK    7  A    between atoms: C_25  and  C_26
REMARK                            x       y       z     vdW  Elec       q    Type
REMARK                         _______ _______ _______ _____ _____    ______ ____
ROOT
ATOM      1  C   UNL     1       5.572  -4.135  -2.666  0.00  0.00    +0.141 A 
ATOM      2  N   UNL     1       6.175  -4.034  -3.829  0.00  0.00    -0.208 NA
ATOM      3  C   UNL     1       6.784  -5.235  -4.038  0.00  0.00    +0.180 A 
ATOM      4  N   UNL     1       7.518  -5.539  -5.121  0.00  0.00    -0.233 NA
ATOM      5  C   UNL     1       8.043  -6.778  -5.092  0.00  0.00    +0.130 A 
ATOM      6  C   UNL     1       7.888  -7.729  -4.080  0.00  0.00    +0.059 A 
ATOM      7  C   UNL     1       7.129  -7.428  -2.915  0.00  0.00    +0.073 A 
ATOM      8  C   UNL     1       6.580  -6.120  -2.981  0.00  0.00    +0.108 A 
ATOM      9  N   UNL     1       5.773  -5.395  -2.144  0.00  0.00    -0.335 N 
ATOM     10 BR   UNL     1       8.893  -9.323  -4.393  0.00  0.00    -0.047 Br
ATOM     11  H   UNL     1       5.425  -5.698  -1.252  0.00  0.00    +0.167 HD
ENDROOT
BRANCH   1  15
ATOM     12  C   UNL     1       3.320  -1.024  -0.681  0.00  0.00    +0.029 A 
ATOM     13  C   UNL     1       3.074  -2.388  -0.438  0.00  0.00    +0.024 A 
ATOM     14  C   UNL     1       3.802  -3.401  -1.070  0.00  0.00    +0.013 A 
ATOM     15  C   UNL     1       4.816  -3.093  -1.973  0.00  0.00    +0.017 A 
ATOM     16  C   UNL     1       5.094  -1.748  -2.220  0.00  0.00    +0.013 A 
ATOM     17  C   UNL     1       4.358  -0.738  -1.579  0.00  0.00    +0.024 A 
BRANCH  12  19
ATOM     18  C   UNL     1       1.515  -0.361   0.880  0.00  0.00    +0.129 C 
ATOM     19  N   UNL     1       2.581  -0.028  -0.056  0.00  0.00    -0.336 N 
ATOM     20  C   UNL     1       2.735   1.367  -0.448  0.00  0.00    +0.129 C 
ENDBRANCH  12  19
ENDBRANCH   1  15
BRANCH   7  21
ATOM     21  N   UNL     1       6.904  -8.241  -1.820  0.00  0.00    -0.325 N 
ATOM     22  C   UNL     1       6.846  -9.713  -1.877  0.00  0.00    +0.120 C 
ATOM     23  C   UNL     1       7.876 -10.353  -0.903  0.00  0.00    +0.103 C 
ATOM     24  N   UNL     1       7.815  -9.847   0.497  0.00  0.00    -0.295 NA
ATOM     25  C   UNL     1       7.969  -8.377   0.418  0.00  0.00    +0.103 C 
ATOM     26  C   UNL     1       6.912  -7.679  -0.453  0.00  0.00    +0.120 C 
BRANCH  24  27
ATOM     27  C   UNL     1       6.556 -10.261   1.143  0.00  0.00    +0.119 C 
BRANCH  27  28
ATOM     28  C   UNL     1       6.386  -9.785   2.569  0.00  0.00    -0.031 A 
ATOM     29  C   UNL     1       5.301  -8.976   2.929  0.00  0.00    +0.024 A 
ATOM     30  C   UNL     1       5.143  -8.621   4.261  0.00  0.00    +0.111 A 
ATOM     31  N   UNL     1       5.971  -9.023   5.246  0.00  0.00    -0.263 NA
ATOM     32  C   UNL     1       7.018  -9.793   4.880  0.00  0.00    +0.111 A 
ATOM     33  C   UNL     1       7.274 -10.180   3.573  0.00  0.00    +0.024 A 
ENDBRANCH  27  28
ENDBRANCH  24  27
ENDBRANCH   7  21
TORSDOF 5
