REMARK  Name = L81
REMARK  8 active torsions:
REMARK  status: ('A' for Active; 'I' for Inactive)
REMARK    1  A    between atoms: C_1  and  O_2
REMARK    2  A    between atoms: O_2  and  C_3
REMARK    3  A    between atoms: C_4  and  C_10
REMARK    4  A    between atoms: N_26  and  C_27
REMARK    5  A    between atoms: C_29  and  O_36
REMARK    6  A    between atoms: C_30  and  C_33
REMARK    7  A    between atoms: C_33  and  O_35
REMARK    8  A    between atoms: O_36  and  C_37
REMARK                            x       y       z     vdW  Elec       q    Type
REMARK                         _______ _______ _______ _____ _____    ______ ____
ROOT
ATOM      1  C   UNL     1       1.393   0.076  -2.645  0.00  0.00    +0.081 C 
ATOM      2  N   UNL     1       0.461  -0.633  -3.191  0.00  0.00    -0.278 NA
ATOM      3  C   UNL     1      -0.873  -0.142  -3.433  0.00  0.00    +0.181 C 
ATOM      4  C   UNL     1      -0.870   0.878  -4.506  0.00  0.00    +0.018 A 
ATOM      5  C   UNL     1      -1.504   0.700  -5.707  0.00  0.00    +0.122 A 
ATOM      6  N   UNL     1      -1.521   1.629  -6.670  0.00  0.00    -0.222 NA
ATOM      7  C   UNL     1      -0.864   2.778  -6.444  0.00  0.00    +0.220 A 
ATOM      8  N   UNL     1      -0.225   3.044  -5.296  0.00  0.00    -0.214 NA
ATOM      9  C   UNL     1      -0.219   2.077  -4.339  0.00  0.00    +0.082 A 
ATOM     10  C   UNL     1       0.422   2.438  -3.057  0.00  0.00    +0.011 A 
ATOM     11  C   UNL     1       1.242   1.565  -2.269  0.00  0.00    +0.028 A 
ATOM     12  C   UNL     1       1.819   2.114  -1.093  0.00  0.00    +0.051 A 
ATOM     13  C   UNL     1       1.545   3.436  -0.687  0.00  0.00    +0.021 A 
ATOM     14  C   UNL     1       0.671   4.236  -1.401  0.00  0.00    +0.002 A 
ATOM     15  C   UNL     1       0.131   3.743  -2.576  0.00  0.00    +0.011 A 
ATOM     16 CL   UNL     1       2.833   1.261   0.023  0.00  0.00    -0.083 Cl
ATOM     17  N   UNL     1      -0.870   3.765  -7.433  0.00  0.00    -0.283 N 
ATOM     18  H   UNL     1      -0.317   4.560  -7.143  0.00  0.00    +0.155 HD
ENDROOT
BRANCH   1  20
ATOM     19  C   UNL     1       2.618  -2.019  -1.841  0.00  0.00    +0.132 A 
ATOM     20  C   UNL     1       2.656  -0.700  -2.360  0.00  0.00    +0.077 A 
ATOM     21  C   UNL     1       3.904  -0.119  -2.599  0.00  0.00    +0.136 A 
ATOM     22  C   UNL     1       5.083  -0.754  -2.204  0.00  0.00    +0.039 A 
ATOM     23  C   UNL     1       5.033  -2.000  -1.584  0.00  0.00    +0.006 A 
ATOM     24  C   UNL     1       3.807  -2.636  -1.417  0.00  0.00    +0.046 A 
ATOM     25  F   UNL     1       3.999   1.091  -3.173  0.00  0.00    -0.205 F 
BRANCH  19  27
ATOM     26  C   UNL     1       1.438  -4.073  -1.923  0.00  0.00    +0.277 C 
ATOM     27  O   UNL     1       1.413  -2.663  -1.688  0.00  0.00    -0.494 OA
ENDBRANCH  19  27
ENDBRANCH   1  20
BRANCH  17  28
ATOM     28  C   UNL     1      -1.008   3.566  -8.818  0.00  0.00    +0.037 A 
ATOM     29  C   UNL     1      -1.569   4.570  -9.620  0.00  0.00    +0.069 A 
ATOM     30  C   UNL     1      -1.804   4.362 -10.994  0.00  0.00    +0.136 A 
ATOM     31  C   UNL     1      -1.456   3.127 -11.578  0.00  0.00    +0.100 A 
ATOM     32  C   UNL     1      -0.863   2.140 -10.781  0.00  0.00    +0.020 A 
ATOM     33  C   UNL     1      -0.641   2.362  -9.424  0.00  0.00    +0.024 A 
BRANCH  31  34
ATOM     34  C   UNL     1      -1.679   2.751 -13.013  0.00  0.00    +0.340 C 
ATOM     35  O   UNL     1      -1.341   1.674 -13.466  0.00  0.00    -0.245 OA
BRANCH  34  36
ATOM     36  O   UNL     1      -2.298   3.676 -13.773  0.00  0.00    -0.477 OA
ATOM     37  H   UNL     1      -2.512   4.491 -13.274  0.00  0.00    +0.295 HD
ENDBRANCH  34  36
ENDBRANCH  31  34
BRANCH  30  38
ATOM     38  O   UNL     1      -2.373   5.301 -11.822  0.00  0.00    -0.494 OA
ATOM     39  C   UNL     1      -2.735   6.558 -11.253  0.00  0.00    +0.277 C 
ENDBRANCH  30  38
ENDBRANCH  17  28
TORSDOF 6
