REMARK  Name = L105
REMARK  7 active torsions:
REMARK  status: ('A' for Active; 'I' for Inactive)
REMARK    1  A    between atoms: C_1  and  C_2
REMARK    2  A    between atoms: C_4  and  C_7
REMARK    3  A    between atoms: C_7  and  N_8
REMARK    4  A    between atoms: N_11  and  C_14
REMARK    5  A    between atoms: C_22  and  C_24
REMARK    6  A    between atoms: N_26  and  C_29
REMARK    7  A    between atoms: C_29  and  C_30
REMARK                            x       y       z     vdW  Elec       q    Type
REMARK                         _______ _______ _______ _____ _____    ______ ____
ROOT
ATOM      1  C   UNL     1      -1.096  -6.995   0.571  0.00  0.00    +0.077 A 
ATOM      2  C   UNL     1       0.112  -7.536   1.056  0.00  0.00    +0.108 A 
ATOM      3  C   UNL     1       0.276  -8.872   1.401  0.00  0.00    +0.180 A 
ATOM      4  N   UNL     1      -0.700  -9.797   1.300  0.00  0.00    -0.233 NA
ATOM      5  C   UNL     1      -1.872  -9.299   0.857  0.00  0.00    +0.135 A 
ATOM      6  C   UNL     1      -2.121  -7.973   0.505  0.00  0.00    +0.082 A 
ATOM      7 CL   UNL     1      -3.773  -7.583   0.125  0.00  0.00    -0.080 Cl
ATOM      8  N   UNL     1       1.535  -9.133   1.867  0.00  0.00    -0.208 NA
ATOM      9  C   UNL     1       2.161  -7.979   1.826  0.00  0.00    +0.144 A 
ATOM     10  N   UNL     1       1.356  -7.006   1.294  0.00  0.00    -0.335 N 
ATOM     11  H   UNL     1       1.637  -6.059   1.115  0.00  0.00    +0.167 HD
ENDROOT
BRANCH   1  15
ATOM     12  N   UNL     1      -1.949  -2.905  -0.121  0.00  0.00    -0.294 NA
ATOM     13  C   UNL     1      -2.796  -3.985  -0.687  0.00  0.00    +0.103 C 
ATOM     14  C   UNL     1      -1.905  -5.214  -0.983  0.00  0.00    +0.120 C 
ATOM     15  N   UNL     1      -1.263  -5.657   0.273  0.00  0.00    -0.325 N 
ATOM     16  C   UNL     1      -0.515  -4.594   0.961  0.00  0.00    +0.120 C 
ATOM     17  C   UNL     1      -1.417  -3.358   1.173  0.00  0.00    +0.103 C 
BRANCH  12  18
ATOM     18  C   UNL     1      -2.638  -1.617  -0.038  0.00  0.00    +0.143 C 
BRANCH  18  22
ATOM     19  C   UNL     1      -2.017  -0.088  -4.873  0.00  0.00    +0.089 C 
ATOM     20  C   UNL     1      -2.432  -0.451  -3.509  0.00  0.00    +0.135 A 
ATOM     21  C   UNL     1      -1.782  -0.983  -2.426  0.00  0.00    +0.072 A 
ATOM     22  C   UNL     1      -2.781  -1.066  -1.423  0.00  0.00    +0.098 A 
ATOM     23  N   UNL     1      -3.958  -0.615  -1.873  0.00  0.00    -0.082 NA
ATOM     24  O   UNL     1      -3.735  -0.234  -3.186  0.00  0.00    -0.360 OA
ENDBRANCH  18  22
ENDBRANCH  12  18
ENDBRANCH   1  15
BRANCH   9  25
ATOM     25  C   UNL     1       3.554  -7.764   2.273  0.00  0.00    +0.055 A 
ATOM     26  C   UNL     1       4.408  -8.753   2.696  0.00  0.00    +0.120 A 
ATOM     27  N   UNL     1       5.590  -8.134   2.974  0.00  0.00    -0.265 N 
ATOM     28  N   UNL     1       5.554  -6.798   2.779  0.00  0.00    -0.179 NA
ATOM     29  C   UNL     1       4.300  -6.576   2.368  0.00  0.00    +0.146 A 
BRANCH  27  30
ATOM     30  C   UNL     1       6.831  -8.773   3.346  0.00  0.00    +0.215 C 
BRANCH  30  31
ATOM     31  C   UNL     1       7.343  -8.287   4.678  0.00  0.00    +0.362 C 
ATOM     32  F   UNL     1       6.509  -8.685   5.674  0.00  0.00    -0.207 F 
ATOM     33  F   UNL     1       8.539  -8.886   4.932  0.00  0.00    -0.207 F 
ENDBRANCH  30  31
ENDBRANCH  27  30
ENDBRANCH   9  25
TORSDOF 6
