REMARK  Name = L113
REMARK  7 active torsions:
REMARK  status: ('A' for Active; 'I' for Inactive)
REMARK    1  A    between atoms: C_1  and  C_2
REMARK    2  A    between atoms: C_2  and  N_3
REMARK    3  A    between atoms: C_5  and  C_8
REMARK    4  A    between atoms: C_14  and  N_17
REMARK    5  A    between atoms: N_20  and  C_23
REMARK    6  A    between atoms: C_23  and  C_24
REMARK    7  A    between atoms: C_27  and  C_29
REMARK                            x       y       z     vdW  Elec       q    Type
REMARK                         _______ _______ _______ _____ _____    ______ ____
ROOT
ATOM      1  C   UNL     1       2.526   7.651  -1.655  0.00  0.00    +0.144 A 
ATOM      2  N   UNL     1       3.648   7.578  -0.979  0.00  0.00    -0.208 NA
ATOM      3  C   UNL     1       3.274   7.671   0.336  0.00  0.00    +0.180 A 
ATOM      4  N   UNL     1       4.135   7.660   1.375  0.00  0.00    -0.233 NA
ATOM      5  C   UNL     1       3.535   7.783   2.576  0.00  0.00    +0.135 A 
ATOM      6  C   UNL     1       2.156   7.853   2.801  0.00  0.00    +0.082 A 
ATOM      7  C   UNL     1       1.225   7.773   1.730  0.00  0.00    +0.077 A 
ATOM      8  C   UNL     1       1.890   7.750   0.485  0.00  0.00    +0.108 A 
ATOM      9  N   UNL     1       1.459   7.759  -0.812  0.00  0.00    -0.335 N 
ATOM     10 CL   UNL     1       1.669   8.151   4.444  0.00  0.00    -0.080 Cl
ATOM     11  H   UNL     1       0.506   7.827  -1.126  0.00  0.00    +0.167 HD
ENDROOT
BRANCH   7  12
ATOM     12  N   UNL     1      -0.152   7.719   1.887  0.00  0.00    -0.325 N 
ATOM     13  C   UNL     1      -1.141   8.198   0.908  0.00  0.00    +0.120 C 
ATOM     14  C   UNL     1      -1.984   7.034   0.312  0.00  0.00    +0.103 C 
ATOM     15  N   UNL     1      -2.608   6.125   1.306  0.00  0.00    -0.294 NA
ATOM     16  C   UNL     1      -1.529   5.654   2.208  0.00  0.00    +0.103 C 
ATOM     17  C   UNL     1      -0.700   6.768   2.886  0.00  0.00    +0.120 C 
BRANCH  15  18
ATOM     18  C   UNL     1      -3.686   6.830   2.036  0.00  0.00    +0.143 C 
BRANCH  18  19
ATOM     19  C   UNL     1      -4.358   5.970   3.061  0.00  0.00    +0.098 A 
ATOM     20  N   UNL     1      -4.385   6.352   4.346  0.00  0.00    -0.082 NA
ATOM     21  O   UNL     1      -5.144   5.404   5.005  0.00  0.00    -0.360 OA
ATOM     22  C   UNL     1      -5.560   4.461   4.120  0.00  0.00    +0.135 A 
ATOM     23  C   UNL     1      -5.060   4.755   2.876  0.00  0.00    +0.072 A 
ATOM     24  C   UNL     1      -6.446   3.406   4.642  0.00  0.00    +0.089 C 
ENDBRANCH  18  19
ENDBRANCH  15  18
ENDBRANCH   7  12
BRANCH   1  27
ATOM     25  N   UNL     1       1.546   7.701  -5.139  0.00  0.00    -0.271 N 
ATOM     26  C   UNL     1       1.212   7.830  -3.819  0.00  0.00    +0.119 A 
ATOM     27  C   UNL     1       2.383   7.617  -3.120  0.00  0.00    +0.055 A 
ATOM     28  C   UNL     1       3.353   7.364  -4.098  0.00  0.00    +0.146 A 
ATOM     29  N   UNL     1       2.843   7.410  -5.338  0.00  0.00    -0.179 NA
BRANCH  25  31
ATOM     30  C   UNL     1       0.624   9.279  -6.780  0.00  0.00    +0.029 C 
ATOM     31  C   UNL     1       0.645   7.852  -6.266  0.00  0.00    +0.140 C 
ENDBRANCH  25  31
ENDBRANCH   1  27
TORSDOF 5
