REMARK  Name = L168
REMARK  3 active torsions:
REMARK  status: ('A' for Active; 'I' for Inactive)
REMARK    1  A    between atoms: C_1  and  C_2
REMARK    2  A    between atoms: N_4  and  C_5
REMARK    3  A    between atoms: C_6  and  C_10
REMARK                            x       y       z     vdW  Elec       q    Type
REMARK                         _______ _______ _______ _____ _____    ______ ____
ROOT
ATOM      1  C   UNL     1       4.651   0.423  -1.192  0.00  0.00    +0.082 A 
ATOM      2  C   UNL     1       5.486  -0.550  -0.693  0.00  0.00    +0.122 A 
ATOM      3  N   UNL     1       6.757  -0.067  -0.843  0.00  0.00    -0.272 N 
ATOM      4  N   UNL     1       6.812   1.119  -1.478  0.00  0.00    -0.180 NA
ATOM      5  C   UNL     1       5.524   1.406  -1.706  0.00  0.00    +0.158 A 
ATOM      6  H   UNL     1       7.626  -0.531  -0.585  0.00  0.00    +0.189 HD
ENDROOT
BRANCH   2   7
ATOM      7  C   UNL     1       5.215  -1.856  -0.212  0.00  0.00    +0.159 A 
ATOM      8  N   UNL     1       5.932  -2.517   0.667  0.00  0.00    -0.226 NA
ATOM      9  C   UNL     1       5.235  -3.687   0.885  0.00  0.00    +0.090 A 
ATOM     10  C   UNL     1       5.499  -4.738   1.773  0.00  0.00    +0.030 A 
ATOM     11  C   UNL     1       4.592  -5.806   1.838  0.00  0.00    +0.002 A 
ATOM     12  C   UNL     1       3.456  -5.836   1.024  0.00  0.00    +0.002 A 
ATOM     13  C   UNL     1       3.188  -4.810   0.113  0.00  0.00    +0.028 A 
ATOM     14  C   UNL     1       4.101  -3.754   0.082  0.00  0.00    +0.067 A 
ATOM     15  N   UNL     1       4.154  -2.605  -0.655  0.00  0.00    -0.337 N 
ATOM     16  H   UNL     1       3.516  -2.336  -1.391  0.00  0.00    +0.167 HD
ENDBRANCH   2   7
BRANCH   1  20
ATOM     17  C   UNL     1       1.008   0.718  -1.862  0.00  0.00    +0.109 C 
ATOM     18  C   UNL     1       2.476   0.884  -2.153  0.00  0.00    +0.214 C 
ATOM     19  O   UNL     1       2.880   1.389  -3.194  0.00  0.00    -0.276 OA
ATOM     20  N   UNL     1       3.271   0.359  -1.158  0.00  0.00    -0.283 N 
ATOM     21  H   UNL     1       2.851  -0.219  -0.440  0.00  0.00    +0.155 HD
ENDBRANCH   1  20
TORSDOF 2
