REMARK  Name = L82
REMARK  4 active torsions:
REMARK  status: ('A' for Active; 'I' for Inactive)
REMARK    1  A    between atoms: C_15  and  C_17
REMARK    2  A    between atoms: N_24  and  C_25
REMARK    3  A    between atoms: C_28  and  C_31
REMARK    4  A    between atoms: C_31  and  O_33
REMARK                            x       y       z     vdW  Elec       q    Type
REMARK                         _______ _______ _______ _____ _____    ______ ____
ROOT
ATOM      1  C   UNL     1      -0.771  -1.845   0.876  0.00  0.00    +0.181 C 
ATOM      2  C   UNL     1      -1.478  -0.628   0.396  0.00  0.00    +0.018 A 
ATOM      3  C   UNL     1      -2.845  -0.538   0.389  0.00  0.00    +0.122 A 
ATOM      4  N   UNL     1      -3.505   0.549  -0.032  0.00  0.00    -0.222 NA
ATOM      5  C   UNL     1      -2.782   1.592  -0.467  0.00  0.00    +0.220 A 
ATOM      6  N   UNL     1      -1.442   1.609  -0.470  0.00  0.00    -0.214 NA
ATOM      7  C   UNL     1      -0.796   0.482  -0.063  0.00  0.00    +0.082 A 
ATOM      8  C   UNL     1       0.681   0.538  -0.061  0.00  0.00    +0.010 A 
ATOM      9  C   UNL     1       1.521  -0.571  -0.346  0.00  0.00    +0.011 A 
ATOM     10  C   UNL     1       2.919  -0.442  -0.223  0.00  0.00    +0.030 A 
ATOM     11  C   UNL     1       3.492   0.779   0.125  0.00  0.00    +0.042 A 
ATOM     12  C   UNL     1       2.690   1.879   0.388  0.00  0.00    +0.020 A 
ATOM     13  C   UNL     1       1.303   1.756   0.299  0.00  0.00    +0.012 A 
ATOM     14 CL   UNL     1       5.202   0.920   0.231  0.00  0.00    -0.084 Cl
ATOM     15  C   UNL     1       0.989  -1.927  -0.741  0.00  0.00    +0.076 C 
ATOM     16  N   UNL     1      -0.038  -2.493  -0.194  0.00  0.00    -0.278 NA
ATOM     17  N   UNL     1      -3.458   2.727  -0.919  0.00  0.00    -0.284 N 
ATOM     18  H   UNL     1      -2.837   3.492  -1.124  0.00  0.00    +0.155 HD
ENDROOT
BRANCH  15  19
ATOM     19  C   UNL     1       1.697  -2.750  -1.788  0.00  0.00    +0.036 A 
ATOM     20  C   UNL     1       1.605  -4.151  -1.703  0.00  0.00    +0.013 A 
ATOM     21  C   UNL     1       2.266  -4.971  -2.622  0.00  0.00    +0.001 A 
ATOM     22  C   UNL     1       3.027  -4.401  -3.639  0.00  0.00    +0.003 A 
ATOM     23  C   UNL     1       3.109  -3.013  -3.747  0.00  0.00    +0.039 A 
ATOM     24  C   UNL     1       2.436  -2.197  -2.836  0.00  0.00    +0.133 A 
ATOM     25  F   UNL     1       2.522  -0.870  -3.002  0.00  0.00    -0.205 F 
ENDBRANCH  15  19
BRANCH  17  26
ATOM     26  C   UNL     1      -4.766   2.788  -1.423  0.00  0.00    +0.034 A 
ATOM     27  C   UNL     1      -5.541   3.937  -1.248  0.00  0.00    +0.024 A 
ATOM     28  C   UNL     1      -6.895   3.948  -1.611  0.00  0.00    +0.017 A 
ATOM     29  C   UNL     1      -7.487   2.805  -2.165  0.00  0.00    +0.059 A 
ATOM     30  C   UNL     1      -6.709   1.676  -2.410  0.00  0.00    +0.017 A 
ATOM     31  C   UNL     1      -5.367   1.672  -2.029  0.00  0.00    +0.024 A 
BRANCH  29  32
ATOM     32  C   UNL     1      -8.934   2.839  -2.497  0.00  0.00    +0.337 C 
ATOM     33  O   UNL     1      -9.517   3.868  -2.795  0.00  0.00    -0.245 OA
BRANCH  32  34
ATOM     34  O   UNL     1      -9.554   1.647  -2.395  0.00  0.00    -0.477 OA
ATOM     35  H   UNL     1      -9.028   0.938  -1.976  0.00  0.00    +0.295 HD
ENDBRANCH  32  34
ENDBRANCH  29  32
ENDBRANCH  17  26
TORSDOF 4
