REMARK  Name = L75
REMARK  11 active torsions:
REMARK  status: ('A' for Active; 'I' for Inactive)
REMARK    1  A    between atoms: C_1  and  C_2
REMARK    2  A    between atoms: C_10  and  S_17
REMARK    3  A    between atoms: S_17  and  C_18
REMARK    4  A    between atoms: C_21  and  N_24
REMARK    5  A    between atoms: C_25  and  C_27
REMARK    6  A    between atoms: C_27  and  N_28
REMARK    7  A    between atoms: C_31  and  C_33
REMARK    8  A    between atoms: C_33  and  C_35
REMARK    9  A    between atoms: C_35  and  C_36
REMARK   10  A    between atoms: C_35  and  C_37
REMARK   11  A    between atoms: C_35  and  C_38
REMARK                            x       y       z     vdW  Elec       q    Type
REMARK                         _______ _______ _______ _____ _____    ______ ____
ROOT
ATOM      1  C   UNL     1       0.288   4.837   3.690  0.00  0.00    +0.016 A 
ATOM      2  C   UNL     1      -0.983   4.823   4.259  0.00  0.00    +0.017 A 
ATOM      3  C   UNL     1      -1.270   3.977   5.334  0.00  0.00    +0.024 A 
ATOM      4  C   UNL     1      -0.304   3.114   5.856  0.00  0.00    +0.033 A 
ATOM      5  C   UNL     1       0.982   3.142   5.302  0.00  0.00    +0.024 A 
ATOM      6  C   UNL     1       1.269   3.987   4.214  0.00  0.00    +0.017 A 
ENDROOT
BRANCH   4   7
ATOM      7  N   UNL     1      -0.570   2.211   6.913  0.00  0.00    -0.284 N 
ATOM      8  C   UNL     1      -1.837   1.855   7.374  0.00  0.00    +0.231 C 
ATOM      9  O   UNL     1      -2.901   2.249   6.904  0.00  0.00    -0.274 OA
ATOM     10  H   UNL     1       0.224   1.708   7.288  0.00  0.00    +0.155 HD
BRANCH   8  11
ATOM     11  C   UNL     1      -1.814   0.852   8.541  0.00  0.00    +0.180 C 
BRANCH  11  12
ATOM     12  N   UNL     1      -2.577  -0.362   8.207  0.00  0.00    -0.293 NA
ATOM     13  C   UNL     1      -2.685  -1.296   9.329  0.00  0.00    +0.085 C 
ATOM     14  C   UNL     1      -1.673  -2.384   9.024  0.00  0.00    +0.027 C 
ATOM     15  C   UNL     1      -1.765  -2.532   7.510  0.00  0.00    +0.071 C 
ATOM     16  C   UNL     1      -2.065  -1.108   7.046  0.00  0.00    +0.096 C 
BRANCH  15  17
ATOM     17  C   UNL     1      -2.838  -3.551   7.086  0.00  0.00    +0.143 C 
ATOM     18  O   UNL     1      -3.768  -3.834   7.848  0.00  0.00    -0.297 OA
BRANCH  17  19
ATOM     19  C   UNL     1      -2.702  -4.262   5.715  0.00  0.00    +0.021 C 
ATOM     20  C   UNL     1      -1.438  -5.133   5.704  0.00  0.00    +0.018 C 
ATOM     21  C   UNL     1      -3.917  -5.186   5.484  0.00  0.00    +0.018 C 
ATOM     22  C   UNL     1      -2.654  -3.245   4.572  0.00  0.00    +0.018 C 
ENDBRANCH  17  19
ENDBRANCH  15  17
ENDBRANCH  11  12
ENDBRANCH   8  11
ENDBRANCH   4   7
BRANCH   1  23
ATOM     23  S   UNL     1       0.613   5.829   2.245  0.00  0.00    -0.048 S 
BRANCH  23  33
ATOM     24  C   UNL     1       5.872   6.738   5.629  0.00  0.00    +0.065 C 
ATOM     25  C   UNL     1       4.849   7.795   5.695  0.00  0.00    +0.035 A 
ATOM     26  C   UNL     1       3.518   7.798   5.334  0.00  0.00    +0.068 A 
ATOM     27  C   UNL     1       3.053   9.111   5.564  0.00  0.00    +0.146 A 
ATOM     28  N   UNL     1       4.015   9.866   6.103  0.00  0.00    -0.158 NA
ATOM     29  N   UNL     1       5.090   9.059   6.151  0.00  0.00    -0.280 N 
ATOM     30  N   UNL     1       1.823   9.610   5.299  0.00  0.00    -0.281 N 
ATOM     31  C   UNL     1       1.016   9.117   4.292  0.00  0.00    +0.153 A 
ATOM     32  N   UNL     1       1.072   7.890   3.874  0.00  0.00    -0.203 NA
ATOM     33  C   UNL     1       0.292   7.463   2.834  0.00  0.00    +0.214 A 
ATOM     34  N   UNL     1      -0.597   8.160   2.203  0.00  0.00    -0.139 NA
ATOM     35  N   UNL     1      -0.701   9.421   2.644  0.00  0.00    -0.234 N 
ATOM     36  C   UNL     1       0.054   9.963   3.643  0.00  0.00    +0.105 A 
ATOM     37  C   UNL     1      -0.292  11.293   3.779  0.00  0.00    +0.033 A 
ATOM     38  C   UNL     1      -1.292  11.562   2.810  0.00  0.00    +0.022 A 
ATOM     39  C   UNL     1      -1.526  10.385   2.132  0.00  0.00    +0.113 A 
ATOM     40  H   UNL     1       5.961   9.441   6.503  0.00  0.00    +0.189 HD
ATOM     41  H   UNL     1       1.723  10.592   5.511  0.00  0.00    +0.155 HD
ENDBRANCH  23  33
ENDBRANCH   1  23
TORSDOF 7
