REMARK  Name = L36
REMARK  7 active torsions:
REMARK  status: ('A' for Active; 'I' for Inactive)
REMARK    1  A    between atoms: C_1  and  C_2
REMARK    2  A    between atoms: C_2  and  C_3
REMARK    3  A    between atoms: N_5  and  C_6
REMARK    4  A    between atoms: C_9  and  S_12
REMARK    5  A    between atoms: S_12  and  C_13
REMARK    6  A    between atoms: C_15  and  N_25
REMARK    7  A    between atoms: C_29  and  C_31
REMARK                            x       y       z     vdW  Elec       q    Type
REMARK                         _______ _______ _______ _____ _____    ______ ____
ROOT
ATOM      1  C   UNL     1       5.813   3.804   7.540  0.00  0.00    +0.196 A 
ATOM      2  N   UNL     1       5.194   4.860   8.092  0.00  0.00    -0.206 NA
ATOM      3  C   UNL     1       4.320   4.592   9.070  0.00  0.00    +0.130 A 
ATOM      4  C   UNL     1       4.127   3.300   9.518  0.00  0.00    +0.087 A 
ATOM      5  C   UNL     1       4.814   2.262   8.926  0.00  0.00    +0.128 A 
ATOM      6  N   UNL     1       5.652   2.523   7.915  0.00  0.00    -0.207 NA
ATOM      7  N   UNL     1       4.612   0.955   9.320  0.00  0.00    -0.311 N 
ATOM      8  C   UNL     1       4.228   0.573  10.687  0.00  0.00    +0.134 C 
ATOM      9  C   UNL     1       5.352  -0.237  11.354  0.00  0.00    +0.178 C 
ATOM     10  O   UNL     1       5.759  -1.355  10.551  0.00  0.00    -0.377 OA
ATOM     11  C   UNL     1       6.233  -0.898   9.271  0.00  0.00    +0.178 C 
ATOM     12  C   UNL     1       5.136  -0.148   8.505  0.00  0.00    +0.134 C 
ENDROOT
BRANCH   3  13
ATOM     13  N   UNL     1       3.623   5.681   9.616  0.00  0.00    -0.283 N 
ATOM     14  C   UNL     1       2.495   5.698  10.361  0.00  0.00    +0.146 A 
ATOM     15  N   UNL     1       1.697   4.659  10.624  0.00  0.00    -0.158 NA
ATOM     16  N   UNL     1       0.719   5.155  11.383  0.00  0.00    -0.280 N 
ATOM     17  C   UNL     1       0.866   6.480  11.666  0.00  0.00    +0.035 A 
ATOM     18  C   UNL     1       1.998   6.872  10.980  0.00  0.00    +0.068 A 
ATOM     19  C   UNL     1      -0.072   7.203  12.549  0.00  0.00    +0.065 C 
ATOM     20  H   UNL     1       3.978   6.541   9.212  0.00  0.00    +0.155 HD
ATOM     21  H   UNL     1      -0.015   4.523  11.688  0.00  0.00    +0.189 HD
ENDBRANCH   3  13
BRANCH   1  22
ATOM     22  S   UNL     1       6.878   4.161   6.155  0.00  0.00    -0.050 S 
BRANCH  22  26
ATOM     23  C   UNL     1       9.957   0.742   6.224  0.00  0.00    +0.033 A 
ATOM     24  C   UNL     1       8.734   0.593   5.564  0.00  0.00    +0.024 A 
ATOM     25  C   UNL     1       7.791   1.625   5.551  0.00  0.00    +0.017 A 
ATOM     26  C   UNL     1       8.047   2.821   6.217  0.00  0.00    +0.016 A 
ATOM     27  C   UNL     1       9.261   2.973   6.891  0.00  0.00    +0.017 A 
ATOM     28  C   UNL     1      10.204   1.935   6.907  0.00  0.00    +0.024 A 
BRANCH  23  31
ATOM     29  C   UNL     1      10.996  -1.355   5.383  0.00  0.00    +0.217 C 
ATOM     30  O   UNL     1      10.227  -1.571   4.453  0.00  0.00    -0.275 OA
ATOM     31  N   UNL     1      10.950  -0.262   6.237  0.00  0.00    -0.286 N 
ATOM     32  H   UNL     1      11.750  -0.105   6.837  0.00  0.00    +0.155 HD
BRANCH  29  34
ATOM     33  C   UNL     1      12.185  -3.447   4.687  0.00  0.00    +0.013 C 
ATOM     34  C   UNL     1      12.137  -2.309   5.699  0.00  0.00    +0.093 C 
ENDBRANCH  29  34
ENDBRANCH  23  31
ENDBRANCH  22  26
ENDBRANCH   1  22
TORSDOF 5
