REMARK  Name = L90
REMARK  8 active torsions:
REMARK  status: ('A' for Active; 'I' for Inactive)
REMARK    1  A    between atoms: C_1  and  N_2
REMARK    2  A    between atoms: N_2  and  C_3
REMARK    3  A    between atoms: N_2  and  C_4
REMARK    4  A    between atoms: C_7  and  C_10
REMARK    5  A    between atoms: C_16  and  N_19
REMARK    6  A    between atoms: N_22  and  C_25
REMARK    7  A    between atoms: C_25  and  C_26
REMARK    8  A    between atoms: N_28  and  C_29
REMARK                            x       y       z     vdW  Elec       q    Type
REMARK                         _______ _______ _______ _____ _____    ______ ____
ROOT
ATOM      1  C   UNL     1      10.017  -4.753   2.656  0.00  0.00    +0.141 A 
ATOM      2  N   UNL     1       9.650  -5.681   1.793  0.00  0.00    -0.208 NA
ATOM      3  C   UNL     1       8.604  -6.339   2.378  0.00  0.00    +0.180 A 
ATOM      4  N   UNL     1       7.908  -7.336   1.800  0.00  0.00    -0.233 NA
ATOM      5  C   UNL     1       6.930  -7.835   2.584  0.00  0.00    +0.135 A 
ATOM      6  C   UNL     1       6.618  -7.423   3.885  0.00  0.00    +0.082 A 
ATOM      7  C   UNL     1       7.339  -6.373   4.508  0.00  0.00    +0.077 A 
ATOM      8  C   UNL     1       8.339  -5.861   3.654  0.00  0.00    +0.108 A 
ATOM      9  N   UNL     1       9.233  -4.828   3.783  0.00  0.00    -0.335 N 
ATOM     10 CL   UNL     1       5.394  -8.354   4.685  0.00  0.00    -0.080 Cl
ATOM     11  H   UNL     1       9.316  -4.231   4.590  0.00  0.00    +0.167 HD
ENDROOT
BRANCH   1  15
ATOM     12  C   UNL     1      13.200  -1.868   2.099  0.00  0.00    +0.029 A 
ATOM     13  C   UNL     1      12.147  -1.645   3.002  0.00  0.00    +0.024 A 
ATOM     14  C   UNL     1      11.110  -2.571   3.187  0.00  0.00    +0.013 A 
ATOM     15  C   UNL     1      11.094  -3.777   2.486  0.00  0.00    +0.017 A 
ATOM     16  C   UNL     1      12.141  -4.033   1.600  0.00  0.00    +0.013 A 
ATOM     17  C   UNL     1      13.173  -3.097   1.418  0.00  0.00    +0.024 A 
BRANCH  12  19
ATOM     18  C   UNL     1      14.188   0.338   2.616  0.00  0.00    +0.129 C 
ATOM     19  N   UNL     1      14.219  -0.934   1.903  0.00  0.00    -0.336 N 
ATOM     20  C   UNL     1      14.961  -0.962   0.645  0.00  0.00    +0.129 C 
ENDBRANCH  12  19
ENDBRANCH   1  15
BRANCH   7  21
ATOM     21  N   UNL     1       7.144  -5.862   5.775  0.00  0.00    -0.325 N 
ATOM     22  C   UNL     1       5.824  -5.722   6.409  0.00  0.00    +0.120 C 
ATOM     23  C   UNL     1       5.758  -6.535   7.733  0.00  0.00    +0.104 C 
ATOM     24  N   UNL     1       6.852  -6.250   8.708  0.00  0.00    -0.291 NA
ATOM     25  C   UNL     1       8.142  -6.408   7.984  0.00  0.00    +0.104 C 
ATOM     26  C   UNL     1       8.286  -5.607   6.670  0.00  0.00    +0.120 C 
BRANCH  24  27
ATOM     27  C   UNL     1       6.673  -4.888   9.262  0.00  0.00    +0.180 C 
BRANCH  27  28
ATOM     28  C   UNL     1       7.804  -4.482  10.200  0.00  0.00    +0.231 C 
ATOM     29  O   UNL     1       8.452  -3.461   9.976  0.00  0.00    -0.274 OA
ATOM     30  N   UNL     1       8.001  -5.364  11.250  0.00  0.00    -0.284 N 
ATOM     31  H   UNL     1       7.547  -6.267  11.143  0.00  0.00    +0.155 HD
BRANCH  30  32
ATOM     32  C   UNL     1       8.915  -5.199  12.311  0.00  0.00    +0.035 A 
ATOM     33  C   UNL     1       9.537  -3.980  12.593  0.00  0.00    +0.043 A 
ATOM     34  C   UNL     1      10.456  -3.881  13.638  0.00  0.00    +0.043 A 
ATOM     35  C   UNL     1      10.758  -4.989  14.421  0.00  0.00    +0.020 A 
ATOM     36  C   UNL     1      10.123  -6.204  14.166  0.00  0.00    +0.003 A 
ATOM     37  C   UNL     1       9.198  -6.308  13.120  0.00  0.00    +0.023 A 
ATOM     38 CL   UNL     1      11.221  -2.372  13.958  0.00  0.00    -0.083 Cl
ENDBRANCH  30  32
ENDBRANCH  27  28
ENDBRANCH  24  27
ENDBRANCH   7  21
TORSDOF 6
