REMARK  Name = L172
REMARK  4 active torsions:
REMARK  status: ('A' for Active; 'I' for Inactive)
REMARK    1  A    between atoms: C_3  and  C_24
REMARK    2  A    between atoms: C_5  and  N_7
REMARK    3  A    between atoms: N_14  and  C_15
REMARK    4  A    between atoms: C_18  and  C_21
REMARK                            x       y       z     vdW  Elec       q    Type
REMARK                         _______ _______ _______ _____ _____    ______ ____
ROOT
ATOM      1  N   UNL     1      -1.724  -2.249   0.058  0.00  0.00    -0.299 N 
ATOM      2  C   UNL     1      -1.221  -3.575   0.180  0.00  0.00    +0.128 A 
ATOM      3  N   UNL     1      -1.435  -4.471  -0.804  0.00  0.00    -0.199 NA
ATOM      4  C   UNL     1      -0.952  -5.711  -0.651  0.00  0.00    +0.221 A 
ATOM      5  N   UNL     1      -0.251  -6.103   0.422  0.00  0.00    -0.223 NA
ATOM      6  C   UNL     1       0.010  -5.175   1.353  0.00  0.00    +0.118 A 
ATOM      7  C   UNL     1      -0.438  -3.883   1.274  0.00  0.00    +0.063 A 
ATOM      8  N   UNL     1      -1.155  -6.600  -1.705  0.00  0.00    -0.284 N 
ATOM      9  H   UNL     1      -1.852  -1.852   0.986  0.00  0.00    +0.154 HD
ATOM     10  H   UNL     1      -1.583  -6.121  -2.484  0.00  0.00    +0.155 HD
ENDROOT
BRANCH   1  15
ATOM     11  C   UNL     1      -5.144  -2.330  -1.453  0.00  0.00    +0.002 A 
ATOM     12  C   UNL     1      -5.169  -1.100  -2.105  0.00  0.00    +0.012 A 
ATOM     13  C   UNL     1      -4.060  -0.244  -2.044  0.00  0.00    +0.057 A 
ATOM     14  C   UNL     1      -2.927  -0.646  -1.314  0.00  0.00    +0.035 A 
ATOM     15  C   UNL     1      -2.868  -1.907  -0.710  0.00  0.00    +0.033 A 
ATOM     16  C   UNL     1      -4.003  -2.725  -0.754  0.00  0.00    +0.023 A 
BRANCH  13  17
ATOM     17  C   UNL     1      -4.063   1.081  -2.763  0.00  0.00    +0.417 C 
ATOM     18  F   UNL     1      -5.197   1.308  -3.483  0.00  0.00    -0.166 F 
ATOM     19  F   UNL     1      -3.946   2.139  -1.913  0.00  0.00    -0.166 F 
ATOM     20  F   UNL     1      -3.034   1.197  -3.648  0.00  0.00    -0.166 F 
ENDBRANCH  13  17
ENDBRANCH   1  15
BRANCH   8  21
ATOM     21  C   UNL     1      -1.379  -7.985  -1.650  0.00  0.00    +0.034 A 
ATOM     22  C   UNL     1      -1.831  -8.632  -0.494  0.00  0.00    +0.024 A 
ATOM     23  C   UNL     1      -2.034 -10.016  -0.474  0.00  0.00    +0.015 A 
ATOM     24  C   UNL     1      -1.762 -10.793  -1.606  0.00  0.00    +0.037 A 
ATOM     25  C   UNL     1      -1.283 -10.160  -2.758  0.00  0.00    +0.015 A 
ATOM     26  C   UNL     1      -1.106  -8.768  -2.778  0.00  0.00    +0.024 A 
BRANCH  24  27
ATOM     27  C   UNL     1      -2.007 -12.263  -1.510  0.00  0.00    +0.242 C 
ATOM     28  O   UNL     1      -2.420 -12.779  -0.480  0.00  0.00    -0.270 OA
ATOM     29  N   UNL     1      -1.773 -13.040  -2.611  0.00  0.00    -0.325 N 
ATOM     30  H   UNL     1      -1.467 -12.705  -3.509  0.00  0.00    +0.145 HD
ATOM     31  H   UNL     1      -1.973 -14.027  -2.515  0.00  0.00    +0.145 HD
ENDBRANCH  24  27
ENDBRANCH   8  21
TORSDOF 4
