REMARK  Name = L9
REMARK  6 active torsions:
REMARK  status: ('A' for Active; 'I' for Inactive)
REMARK    1  A    between atoms: C_1  and  O_2
REMARK    2  A    between atoms: O_2  and  C_3
REMARK    3  A    between atoms: C_4  and  C_10
REMARK    4  A    between atoms: N_12  and  C_13
REMARK    5  A    between atoms: C_16  and  N_19
REMARK    6  A    between atoms: N_19  and  C_20
REMARK                            x       y       z     vdW  Elec       q    Type
REMARK                         _______ _______ _______ _____ _____    ______ ____
ROOT
ATOM      1  C   UNL     1      -0.213  -1.036  -4.333  0.00  0.00    +0.034 A 
ATOM      2  C   UNL     1      -1.141  -1.770  -5.080  0.00  0.00    +0.025 A 
ATOM      3  C   UNL     1      -2.341  -1.170  -5.488  0.00  0.00    +0.025 A 
ATOM      4  C   UNL     1      -2.649   0.167  -5.188  0.00  0.00    +0.031 A 
ATOM      5  C   UNL     1      -1.669   0.916  -4.526  0.00  0.00    +0.025 A 
ATOM      6  C   UNL     1      -0.461   0.332  -4.099  0.00  0.00    +0.025 A 
ENDROOT
BRANCH   1   9
ATOM      7  C   UNL     1       1.459  -2.885  -3.939  0.00  0.00    +0.255 C 
ATOM      8  O   UNL     1       1.071  -3.666  -4.800  0.00  0.00    -0.270 OA
ATOM      9  N   UNL     1       0.952  -1.599  -3.759  0.00  0.00    -0.281 N 
ATOM     10  H   UNL     1       1.461  -0.986  -3.132  0.00  0.00    +0.155 HD
BRANCH   7  12
ATOM     11  C   UNL     1       2.849  -4.652  -2.728  0.00  0.00    +0.135 A 
ATOM     12  C   UNL     1       2.570  -3.297  -3.005  0.00  0.00    +0.114 A 
ATOM     13  C   UNL     1       3.350  -2.320  -2.380  0.00  0.00    +0.139 A 
ATOM     14  C   UNL     1       4.361  -2.651  -1.478  0.00  0.00    +0.039 A 
ATOM     15  C   UNL     1       4.618  -3.983  -1.182  0.00  0.00    +0.006 A 
ATOM     16  C   UNL     1       3.858  -4.975  -1.795  0.00  0.00    +0.046 A 
ATOM     17  F   UNL     1       3.143  -1.014  -2.607  0.00  0.00    -0.205 F 
BRANCH  11  19
ATOM     18  C   UNL     1       2.733  -6.854  -3.609  0.00  0.00    +0.277 C 
ATOM     19  O   UNL     1       2.068  -5.635  -3.280  0.00  0.00    -0.494 OA
ENDBRANCH  11  19
ENDBRANCH   7  12
ENDBRANCH   1   9
BRANCH   4  20
ATOM     20  N   UNL     1      -3.938   0.730  -5.398  0.00  0.00    -0.314 N 
ATOM     21  H   UNL     1      -3.920   1.686  -5.738  0.00  0.00    +0.152 HD
BRANCH  20  22
ATOM     22  C   UNL     1      -5.142   0.011  -5.615  0.00  0.00    +0.044 A 
ATOM     23  C   UNL     1      -5.926   0.224  -6.749  0.00  0.00    +0.046 A 
ATOM     24  C   UNL     1      -5.872   1.343  -7.690  0.00  0.00    -0.000 A 
ATOM     25  C   UNL     1      -6.431   2.610  -7.480  0.00  0.00    +0.009 A 
ATOM     26  C   UNL     1      -6.443   3.553  -8.520  0.00  0.00    +0.001 A 
ATOM     27  C   UNL     1      -5.845   3.264  -9.752  0.00  0.00    +0.001 A 
ATOM     28  C   UNL     1      -5.365   1.982  -9.998  0.00  0.00    +0.014 A 
ATOM     29  C   UNL     1      -5.485   1.025  -8.997  0.00  0.00    +0.047 A 
ATOM     30  C   UNL     1      -5.602  -0.404  -9.364  0.00  0.00    +0.258 A 
ATOM     31  O   UNL     1      -4.985  -0.864 -10.319  0.00  0.00    -0.267 OA
ATOM     32  N   UNL     1      -6.530  -1.109  -8.609  0.00  0.00    -0.306 N 
ATOM     33  C   UNL     1      -6.604  -0.900  -7.213  0.00  0.00    +0.143 A 
ATOM     34  N   UNL     1      -6.952  -1.965  -6.469  0.00  0.00    -0.237 NA
ATOM     35  C   UNL     1      -6.345  -2.049  -5.271  0.00  0.00    +0.115 A 
ATOM     36  C   UNL     1      -5.398  -1.133  -4.845  0.00  0.00    +0.043 A 
ATOM     37  H   UNL     1      -7.424  -1.293  -9.048  0.00  0.00    +0.170 HD
ENDBRANCH  20  22
ENDBRANCH   4  20
TORSDOF 5
