REMARK  Name = L104
REMARK  8 active torsions:
REMARK  status: ('A' for Active; 'I' for Inactive)
REMARK    1  A    between atoms: C_1  and  C_2
REMARK    2  A    between atoms: C_2  and  N_3
REMARK    3  A    between atoms: N_6  and  C_9
REMARK    4  A    between atoms: C_12  and  C_15
REMARK    5  A    between atoms: C_21  and  N_24
REMARK    6  A    between atoms: N_27  and  C_30
REMARK    7  A    between atoms: C_30  and  C_31
REMARK    8  A    between atoms: C_34  and  C_36
REMARK                            x       y       z     vdW  Elec       q    Type
REMARK                         _______ _______ _______ _____ _____    ______ ____
ROOT
ATOM      1  C   UNL     1       0.685  -8.848   2.491  0.00  0.00    +0.141 A 
ATOM      2  N   UNL     1       0.850  -9.407   3.674  0.00  0.00    -0.208 NA
ATOM      3  C   UNL     1       0.514 -10.722   3.506  0.00  0.00    +0.180 A 
ATOM      4  N   UNL     1       0.520 -11.643   4.487  0.00  0.00    -0.233 NA
ATOM      5  C   UNL     1       0.119 -12.867   4.082  0.00  0.00    +0.135 A 
ATOM      6  C   UNL     1      -0.274 -13.221   2.786  0.00  0.00    +0.082 A 
ATOM      7  C   UNL     1      -0.268 -12.268   1.738  0.00  0.00    +0.077 A 
ATOM      8  C   UNL     1       0.151 -11.002   2.194  0.00  0.00    +0.108 A 
ATOM      9  N   UNL     1       0.343  -9.800   1.564  0.00  0.00    -0.335 N 
ATOM     10 CL   UNL     1      -0.880 -14.836   2.600  0.00  0.00    -0.080 Cl
ATOM     11  H   UNL     1       0.236  -9.630   0.577  0.00  0.00    +0.167 HD
ENDROOT
BRANCH   1  15
ATOM     12  C   UNL     1       1.222  -4.698   1.472  0.00  0.00    +0.030 A 
ATOM     13  C   UNL     1       2.006  -5.325   2.452  0.00  0.00    +0.024 A 
ATOM     14  C   UNL     1       1.827  -6.673   2.791  0.00  0.00    +0.013 A 
ATOM     15  C   UNL     1       0.860  -7.442   2.148  0.00  0.00    +0.017 A 
ATOM     16  C   UNL     1       0.058  -6.830   1.178  0.00  0.00    +0.013 A 
ATOM     17  C   UNL     1       0.243  -5.483   0.850  0.00  0.00    +0.024 A 
BRANCH  12  21
ATOM     18  N   UNL     1       0.553  -0.569   0.754  0.00  0.00    -0.300 NA
ATOM     19  C   UNL     1       0.236  -1.645  -0.216  0.00  0.00    +0.103 C 
ATOM     20  C   UNL     1       1.204  -2.849  -0.212  0.00  0.00    +0.120 C 
ATOM     21  N   UNL     1       1.394  -3.369   1.149  0.00  0.00    -0.327 N 
ATOM     22  C   UNL     1       1.691  -2.371   2.185  0.00  0.00    +0.120 C 
ATOM     23  C   UNL     1       0.686  -1.194   2.097  0.00  0.00    +0.103 C 
BRANCH  18  25
ATOM     24  C   UNL     1       1.669   0.966  -0.887  0.00  0.00    +0.020 C 
ATOM     25  C   UNL     1       1.767   0.191   0.423  0.00  0.00    +0.081 C 
ENDBRANCH  18  25
ENDBRANCH  12  21
ENDBRANCH   1  15
BRANCH   7  26
ATOM     26  N   UNL     1      -0.659 -12.489   0.433  0.00  0.00    -0.325 N 
ATOM     27  C   UNL     1      -0.286 -13.689  -0.333  0.00  0.00    +0.120 C 
ATOM     28  C   UNL     1      -1.538 -14.282  -1.037  0.00  0.00    +0.103 C 
ATOM     29  N   UNL     1      -2.301 -13.315  -1.878  0.00  0.00    -0.294 NA
ATOM     30  C   UNL     1      -2.628 -12.147  -1.025  0.00  0.00    +0.103 C 
ATOM     31  C   UNL     1      -1.422 -11.484  -0.325  0.00  0.00    +0.120 C 
BRANCH  29  32
ATOM     32  C   UNL     1      -1.504 -12.954  -3.070  0.00  0.00    +0.143 C 
BRANCH  32  33
ATOM     33  C   UNL     1      -2.208 -11.986  -3.966  0.00  0.00    +0.098 A 
ATOM     34  N   UNL     1      -1.647 -10.799  -4.243  0.00  0.00    -0.082 NA
ATOM     35  O   UNL     1      -2.499 -10.183  -5.142  0.00  0.00    -0.360 OA
ATOM     36  C   UNL     1      -3.562 -10.993  -5.387  0.00  0.00    +0.135 A 
ATOM     37  C   UNL     1      -3.440 -12.140  -4.643  0.00  0.00    +0.072 A 
ATOM     38  C   UNL     1      -4.552 -10.507  -6.363  0.00  0.00    +0.089 C 
ENDBRANCH  32  33
ENDBRANCH  29  32
ENDBRANCH   7  26
TORSDOF 6
