REMARK  Name = L143
REMARK  6 active torsions:
REMARK  status: ('A' for Active; 'I' for Inactive)
REMARK    1  A    between atoms: C_1  and  O_2
REMARK    2  A    between atoms: O_2  and  C_3
REMARK    3  A    between atoms: C_6  and  C_9
REMARK    4  A    between atoms: C_15  and  N_18
REMARK    5  A    between atoms: N_21  and  C_24
REMARK    6  A    between atoms: C_24  and  C_25
REMARK                            x       y       z     vdW  Elec       q    Type
REMARK                         _______ _______ _______ _____ _____    ______ ____
ROOT
ATOM      1  C   UNL     1       5.403   1.595  -4.652  0.00  0.00    +0.141 A 
ATOM      2  N   UNL     1       5.839   2.794  -4.980  0.00  0.00    -0.208 NA
ATOM      3  C   UNL     1       6.402   2.656  -6.221  0.00  0.00    +0.180 A 
ATOM      4  N   UNL     1       7.017   3.646  -6.896  0.00  0.00    -0.233 NA
ATOM      5  C   UNL     1       7.451   3.277  -8.118  0.00  0.00    +0.130 A 
ATOM      6  C   UNL     1       7.295   2.014  -8.707  0.00  0.00    +0.059 A 
ATOM      7  C   UNL     1       6.678   0.949  -8.002  0.00  0.00    +0.073 A 
ATOM      8  C   UNL     1       6.262   1.366  -6.718  0.00  0.00    +0.108 A 
ATOM      9  N   UNL     1       5.696   0.706  -5.657  0.00  0.00    -0.335 N 
ATOM     10 BR   UNL     1       7.839   1.914 -10.534  0.00  0.00    -0.047 Br
ATOM     11  H   UNL     1       5.474  -0.272  -5.630  0.00  0.00    +0.167 HD
ENDROOT
BRANCH   1  15
ATOM     12  C   UNL     1       3.342   0.450  -1.075  0.00  0.00    +0.120 A 
ATOM     13  C   UNL     1       3.278   1.763  -1.544  0.00  0.00    +0.046 A 
ATOM     14  C   UNL     1       3.946   2.136  -2.716  0.00  0.00    +0.015 A 
ATOM     15  C   UNL     1       4.702   1.200  -3.430  0.00  0.00    +0.018 A 
ATOM     16  C   UNL     1       4.771  -0.115  -2.944  0.00  0.00    +0.015 A 
ATOM     17  C   UNL     1       4.098  -0.487  -1.776  0.00  0.00    +0.046 A 
BRANCH  12  19
ATOM     18  C   UNL     1       2.315  -1.145   0.339  0.00  0.00    +0.277 C 
ATOM     19  O   UNL     1       2.670   0.210   0.091  0.00  0.00    -0.495 OA
ENDBRANCH  12  19
ENDBRANCH   1  15
BRANCH   7  20
ATOM     20  N   UNL     1       6.485  -0.342  -8.457  0.00  0.00    -0.325 N 
ATOM     21  C   UNL     1       7.466  -1.057  -9.297  0.00  0.00    +0.120 C 
ATOM     22  C   UNL     1       7.765  -2.485  -8.744  0.00  0.00    +0.103 C 
ATOM     23  N   UNL     1       6.592  -3.302  -8.346  0.00  0.00    -0.295 NA
ATOM     24  C   UNL     1       5.748  -2.468  -7.463  0.00  0.00    +0.103 C 
ATOM     25  C   UNL     1       5.297  -1.137  -8.109  0.00  0.00    +0.120 C 
BRANCH  23  26
ATOM     26  C   UNL     1       5.869  -3.781  -9.539  0.00  0.00    +0.119 C 
BRANCH  26  27
ATOM     27  C   UNL     1       4.655  -4.625  -9.219  0.00  0.00    -0.031 A 
ATOM     28  C   UNL     1       3.369  -4.199  -9.572  0.00  0.00    +0.024 A 
ATOM     29  C   UNL     1       2.290  -5.018  -9.270  0.00  0.00    +0.111 A 
ATOM     30  N   UNL     1       2.405  -6.208  -8.644  0.00  0.00    -0.263 NA
ATOM     31  C   UNL     1       3.654  -6.600  -8.310  0.00  0.00    +0.111 A 
ATOM     32  C   UNL     1       4.792  -5.854  -8.569  0.00  0.00    +0.024 A 
ENDBRANCH  26  27
ENDBRANCH  23  26
ENDBRANCH   7  20
TORSDOF 5
