REMARK  Name = L34
REMARK  5 active torsions:
REMARK  status: ('A' for Active; 'I' for Inactive)
REMARK    1  A    between atoms: C_1  and  C_2
REMARK    2  A    between atoms: C_10  and  S_18
REMARK    3  A    between atoms: S_18  and  C_19
REMARK    4  A    between atoms: C_22  and  N_25
REMARK    5  A    between atoms: C_26  and  C_28
REMARK                            x       y       z     vdW  Elec       q    Type
REMARK                         _______ _______ _______ _____ _____    ______ ____
ROOT
ATOM      1  C   UNL     1       5.907  -0.021  -3.232  0.00  0.00    +0.065 C 
ATOM      2  C   UNL     1       4.942   0.178  -2.132  0.00  0.00    +0.035 A 
ATOM      3  C   UNL     1       4.176   1.264  -1.779  0.00  0.00    +0.068 A 
ATOM      4  C   UNL     1       3.472   0.875  -0.616  0.00  0.00    +0.146 A 
ATOM      5  N   UNL     1       3.742  -0.393  -0.295  0.00  0.00    -0.158 NA
ATOM      6  N   UNL     1       4.659  -0.776  -1.199  0.00  0.00    -0.280 N 
ATOM      7  N   UNL     1       2.638   1.632   0.126  0.00  0.00    -0.282 N 
ATOM      8  C   UNL     1       2.360   3.011   0.079  0.00  0.00    +0.136 A 
ATOM      9  N   UNL     1       2.820   3.710  -0.971  0.00  0.00    -0.206 NA
ATOM     10  C   UNL     1       2.631   5.030  -0.987  0.00  0.00    +0.195 A 
ATOM     11  N   UNL     1       2.011   5.728  -0.032  0.00  0.00    -0.221 NA
ATOM     12  C   UNL     1       1.542   5.038   1.009  0.00  0.00    +0.077 A 
ATOM     13  C   UNL     1       0.886   5.741   2.013  0.00  0.00    +0.028 A 
ATOM     14  C   UNL     1       0.361   5.106   3.140  0.00  0.00    +0.002 A 
ATOM     15  C   UNL     1       0.497   3.736   3.283  0.00  0.00    +0.001 A 
ATOM     16  C   UNL     1       1.158   3.008   2.296  0.00  0.00    +0.013 A 
ATOM     17  C   UNL     1       1.683   3.647   1.139  0.00  0.00    +0.041 A 
ATOM     18  H   UNL     1       5.054  -1.707  -1.116  0.00  0.00    +0.189 HD
ATOM     19  H   UNL     1       2.159   1.120   0.849  0.00  0.00    +0.155 HD
ENDROOT
BRANCH  10  20
ATOM     20  S   UNL     1       3.314   5.902  -2.369  0.00  0.00    -0.050 S 
BRANCH  20  21
ATOM     21  C   UNL     1       1.923   5.923  -3.480  0.00  0.00    +0.016 A 
ATOM     22  C   UNL     1       1.467   7.157  -3.940  0.00  0.00    +0.017 A 
ATOM     23  C   UNL     1       0.396   7.234  -4.834  0.00  0.00    +0.024 A 
ATOM     24  C   UNL     1      -0.240   6.081  -5.295  0.00  0.00    +0.033 A 
ATOM     25  C   UNL     1       0.224   4.838  -4.842  0.00  0.00    +0.024 A 
ATOM     26  C   UNL     1       1.302   4.760  -3.945  0.00  0.00    +0.017 A 
BRANCH  24  27
ATOM     27  N   UNL     1      -1.329   6.101  -6.197  0.00  0.00    -0.286 N 
ATOM     28  C   UNL     1      -1.912   7.222  -6.762  0.00  0.00    +0.214 C 
ATOM     29  O   UNL     1      -1.587   8.391  -6.586  0.00  0.00    -0.276 OA
ATOM     30  C   UNL     1      -3.068   6.909  -7.679  0.00  0.00    +0.109 C 
ATOM     31  H   UNL     1      -1.708   5.197  -6.453  0.00  0.00    +0.155 HD
ENDBRANCH  24  27
ENDBRANCH  20  21
ENDBRANCH  10  20
TORSDOF 3
