REMARK  Name = L151
REMARK  6 active torsions:
REMARK  status: ('A' for Active; 'I' for Inactive)
REMARK    1  A    between atoms: C_1  and  C_2
REMARK    2  A    between atoms: C_4  and  C_7
REMARK    3  A    between atoms: C_7  and  N_8
REMARK    4  A    between atoms: N_11  and  C_14
REMARK    5  A    between atoms: C_22  and  C_24
REMARK    6  A    between atoms: N_28  and  C_29
REMARK                            x       y       z     vdW  Elec       q    Type
REMARK                         _______ _______ _______ _____ _____    ______ ____
ROOT
ATOM      1  C   UNL     1      -1.092  -7.004   0.518  0.00  0.00    +0.073 A 
ATOM      2  C   UNL     1      -0.913  -7.389   1.862  0.00  0.00    +0.108 A 
ATOM      3  C   UNL     1      -0.790  -8.703   2.293  0.00  0.00    +0.180 A 
ATOM      4  N   UNL     1      -0.870  -9.769   1.475  0.00  0.00    -0.233 NA
ATOM      5  C   UNL     1      -1.052  -9.435   0.182  0.00  0.00    +0.130 A 
ATOM      6  C   UNL     1      -1.141  -8.135  -0.337  0.00  0.00    +0.059 A 
ATOM      7 BR   UNL     1      -1.197  -8.054  -2.244  0.00  0.00    -0.047 Br
ATOM      8  N   UNL     1      -0.566  -8.783   3.639  0.00  0.00    -0.207 NA
ATOM      9  C   UNL     1      -0.581  -7.540   4.062  0.00  0.00    +0.159 A 
ATOM     10  N   UNL     1      -0.871  -6.684   3.039  0.00  0.00    -0.334 N 
ATOM     11  H   UNL     1      -0.992  -5.688   3.129  0.00  0.00    +0.168 HD
ENDROOT
BRANCH   1  15
ATOM     12  N   UNL     1      -1.951  -2.908  -0.145  0.00  0.00    -0.294 NA
ATOM     13  C   UNL     1      -2.856  -3.963  -0.647  0.00  0.00    +0.103 C 
ATOM     14  C   UNL     1      -2.072  -5.252  -0.977  0.00  0.00    +0.120 C 
ATOM     15  N   UNL     1      -1.258  -5.679   0.176  0.00  0.00    -0.325 N 
ATOM     16  C   UNL     1      -0.417  -4.598   0.733  0.00  0.00    +0.120 C 
ATOM     17  C   UNL     1      -1.310  -3.381   1.089  0.00  0.00    +0.103 C 
BRANCH  12  18
ATOM     18  C   UNL     1      -2.611  -1.609  -0.029  0.00  0.00    +0.143 C 
BRANCH  18  22
ATOM     19  C   UNL     1      -2.102  -0.049  -4.871  0.00  0.00    +0.089 C 
ATOM     20  C   UNL     1      -2.492  -0.431  -3.504  0.00  0.00    +0.135 A 
ATOM     21  C   UNL     1      -1.819  -0.971  -2.440  0.00  0.00    +0.072 A 
ATOM     22  C   UNL     1      -2.794  -1.057  -1.413  0.00  0.00    +0.098 A 
ATOM     23  N   UNL     1      -3.986  -0.617  -1.838  0.00  0.00    -0.082 NA
ATOM     24  O   UNL     1      -3.791  -0.225  -3.154  0.00  0.00    -0.360 OA
ENDBRANCH  18  22
ENDBRANCH  12  18
ENDBRANCH   1  15
BRANCH   9  25
ATOM     25  C   UNL     1      -0.335  -7.112   5.399  0.00  0.00    +0.104 A 
ATOM     26  C   UNL     1      -0.316  -5.842   5.946  0.00  0.00    +0.142 A 
ATOM     27  N   UNL     1      -0.037  -5.880   7.287  0.00  0.00    -0.243 NA
ATOM     28  C   UNL     1       0.119  -7.154   7.566  0.00  0.00    +0.199 A 
ATOM     29  N   UNL     1      -0.034  -7.937   6.455  0.00  0.00    -0.331 N 
ATOM     30  C   UNL     1       0.114  -9.373   6.428  0.00  0.00    +0.150 C 
ENDBRANCH   9  25
TORSDOF 4
