REMARK  Name = L56
REMARK  7 active torsions:
REMARK  status: ('A' for Active; 'I' for Inactive)
REMARK    1  A    between atoms: C_1  and  C_2
REMARK    2  A    between atoms: C_2  and  C_3
REMARK    3  A    between atoms: N_5  and  C_6
REMARK    4  A    between atoms: C_9  and  S_12
REMARK    5  A    between atoms: S_12  and  C_13
REMARK    6  A    between atoms: C_15  and  C_26
REMARK    7  A    between atoms: C_23  and  C_25
REMARK                            x       y       z     vdW  Elec       q    Type
REMARK                         _______ _______ _______ _____ _____    ______ ____
ROOT
ATOM      1  C   UNL     1       5.615  -8.449  -0.363  0.00  0.00    +0.195 A 
ATOM      2  N   UNL     1       5.035  -9.414   0.366  0.00  0.00    -0.221 NA
ATOM      3  C   UNL     1       4.339 -10.347  -0.302  0.00  0.00    +0.077 A 
ATOM      4  C   UNL     1       4.199 -10.295  -1.670  0.00  0.00    +0.072 A 
ATOM      5  C   UNL     1       4.841  -9.287  -2.356  0.00  0.00    +0.129 A 
ATOM      6  N   UNL     1       5.534  -8.339  -1.702  0.00  0.00    -0.206 NA
ATOM      7  N   UNL     1       4.793  -9.217  -3.761  0.00  0.00    -0.283 N 
ATOM      8  C   UNL     1       4.542 -10.204  -4.655  0.00  0.00    +0.146 A 
ATOM      9  N   UNL     1       4.371 -11.502  -4.383  0.00  0.00    -0.158 NA
ATOM     10  N   UNL     1       4.186 -12.084  -5.571  0.00  0.00    -0.280 N 
ATOM     11  C   UNL     1       4.200 -11.210  -6.617  0.00  0.00    +0.035 A 
ATOM     12  C   UNL     1       4.446  -9.976  -6.052  0.00  0.00    +0.068 A 
ATOM     13  C   UNL     1       3.983 -11.650  -8.012  0.00  0.00    +0.065 C 
ATOM     14  H   UNL     1       5.237  -8.360  -4.070  0.00  0.00    +0.155 HD
ATOM     15  H   UNL     1       4.049 -13.090  -5.595  0.00  0.00    +0.189 HD
ENDROOT
BRANCH   3  16
ATOM     16  C   UNL     1       3.755 -11.432   0.501  0.00  0.00    +0.003 A 
ATOM     17  C   UNL     1       3.265 -11.195   1.789  0.00  0.00    +0.030 A 
ATOM     18  C   UNL     1       2.716 -12.247   2.504  0.00  0.00    +0.111 A 
ATOM     19  N   UNL     1       2.623 -13.510   2.036  0.00  0.00    -0.263 NA
ATOM     20  C   UNL     1       3.109 -13.731   0.800  0.00  0.00    +0.111 A 
ATOM     21  C   UNL     1       3.673 -12.743   0.009  0.00  0.00    +0.030 A 
ENDBRANCH   3  16
BRANCH   1  22
ATOM     22  S   UNL     1       6.583  -7.212   0.484  0.00  0.00    -0.050 S 
BRANCH  22  26
ATOM     23  C   UNL     1       6.845  -8.706   4.840  0.00  0.00    +0.033 A 
ATOM     24  C   UNL     1       7.714  -9.194   3.861  0.00  0.00    +0.024 A 
ATOM     25  C   UNL     1       7.625  -8.757   2.533  0.00  0.00    +0.017 A 
ATOM     26  C   UNL     1       6.654  -7.828   2.157  0.00  0.00    +0.016 A 
ATOM     27  C   UNL     1       5.772  -7.346   3.130  0.00  0.00    +0.017 A 
ATOM     28  C   UNL     1       5.856  -7.793   4.459  0.00  0.00    +0.024 A 
BRANCH  23  31
ATOM     29  C   UNL     1       7.990  -9.747   6.791  0.00  0.00    +0.217 C 
ATOM     30  O   UNL     1       9.067  -9.987   6.250  0.00  0.00    -0.275 OA
ATOM     31  N   UNL     1       6.916  -9.099   6.198  0.00  0.00    -0.286 N 
ATOM     32  H   UNL     1       6.170  -8.784   6.805  0.00  0.00    +0.155 HD
BRANCH  29  34
ATOM     33  C   UNL     1       8.961 -10.802   8.845  0.00  0.00    +0.013 C 
ATOM     34  C   UNL     1       7.731 -10.144   8.234  0.00  0.00    +0.093 C 
ENDBRANCH  29  34
ENDBRANCH  23  31
ENDBRANCH  22  26
ENDBRANCH   1  22
TORSDOF 5
