REMARK  Name = L91
REMARK  9 active torsions:
REMARK  status: ('A' for Active; 'I' for Inactive)
REMARK    1  A    between atoms: C_1  and  C_2
REMARK    2  A    between atoms: C_4  and  C_7
REMARK    3  A    between atoms: C_7  and  N_8
REMARK    4  A    between atoms: N_11  and  C_14
REMARK    5  A    between atoms: C_22  and  C_24
REMARK    6  A    between atoms: C_27  and  O_30
REMARK    7  A    between atoms: O_30  and  C_31
REMARK    8  A    between atoms: C_31  and  C_32
REMARK    9  A    between atoms: C_32  and  O_33
REMARK                            x       y       z     vdW  Elec       q    Type
REMARK                         _______ _______ _______ _____ _____    ______ ____
ROOT
ATOM      1  C   UNL     1      -1.006  -6.992   0.548  0.00  0.00    +0.077 A 
ATOM      2  C   UNL     1      -0.595  -8.000  -0.349  0.00  0.00    +0.108 A 
ATOM      3  C   UNL     1      -0.493  -9.345  -0.028  0.00  0.00    +0.180 A 
ATOM      4  N   UNL     1      -0.827  -9.844   1.181  0.00  0.00    -0.233 NA
ATOM      5  C   UNL     1      -1.235  -8.908   2.054  0.00  0.00    +0.135 A 
ATOM      6  C   UNL     1      -1.328  -7.532   1.817  0.00  0.00    +0.082 A 
ATOM      7 CL   UNL     1      -1.722  -6.554   3.196  0.00  0.00    -0.080 Cl
ATOM      8  N   UNL     1      -0.006 -10.089  -1.070  0.00  0.00    -0.208 NA
ATOM      9  C   UNL     1       0.141  -9.242  -2.071  0.00  0.00    +0.141 A 
ATOM     10  N   UNL     1      -0.237  -7.982  -1.666  0.00  0.00    -0.335 N 
ATOM     11  H   UNL     1      -0.225  -7.163  -2.253  0.00  0.00    +0.167 HD
ENDROOT
BRANCH   1  15
ATOM     12  N   UNL     1      -0.663  -2.821   0.018  0.00  0.00    -0.294 NA
ATOM     13  C   UNL     1      -1.494  -3.401   1.101  0.00  0.00    +0.103 C 
ATOM     14  C   UNL     1      -2.102  -4.729   0.595  0.00  0.00    +0.120 C 
ATOM     15  N   UNL     1      -1.014  -5.654   0.210  0.00  0.00    -0.325 N 
ATOM     16  C   UNL     1      -0.045  -5.074  -0.738  0.00  0.00    +0.120 C 
ATOM     17  C   UNL     1       0.477  -3.716  -0.221  0.00  0.00    +0.103 C 
BRANCH  12  18
ATOM     18  C   UNL     1      -0.280  -1.432   0.252  0.00  0.00    +0.143 C 
BRANCH  18  22
ATOM     19  C   UNL     1      -4.569   0.855  -1.321  0.00  0.00    +0.089 C 
ATOM     20  C   UNL     1      -3.356   0.342  -0.664  0.00  0.00    +0.135 A 
ATOM     21  C   UNL     1      -2.427  -0.609  -0.992  0.00  0.00    +0.072 A 
ATOM     22  C   UNL     1      -1.496  -0.575   0.076  0.00  0.00    +0.098 A 
ATOM     23  N   UNL     1      -1.852   0.328   1.000  0.00  0.00    -0.082 NA
ATOM     24  O   UNL     1      -3.024   0.899   0.531  0.00  0.00    -0.360 OA
ENDBRANCH  18  22
ENDBRANCH  12  18
ENDBRANCH   1  15
BRANCH   9  25
ATOM     25  C   UNL     1       0.615  -9.533  -3.421  0.00  0.00    +0.018 A 
ATOM     26  C   UNL     1       0.278  -8.685  -4.481  0.00  0.00    +0.015 A 
ATOM     27  C   UNL     1       0.720  -8.944  -5.776  0.00  0.00    +0.046 A 
ATOM     28  C   UNL     1       1.507 -10.063  -6.051  0.00  0.00    +0.121 A 
ATOM     29  C   UNL     1       1.851 -10.919  -5.001  0.00  0.00    +0.046 A 
ATOM     30  C   UNL     1       1.404 -10.655  -3.693  0.00  0.00    +0.015 A 
BRANCH  28  31
ATOM     31  O   UNL     1       1.973 -10.395  -7.301  0.00  0.00    -0.490 OA
BRANCH  31  32
ATOM     32  C   UNL     1       1.534  -9.521  -8.352  0.00  0.00    +0.256 C 
BRANCH  32  33
ATOM     33  C   UNL     1       2.079  -9.975  -9.700  0.00  0.00    +0.196 C 
BRANCH  33  34
ATOM     34  O   UNL     1       1.562 -11.253 -10.052  0.00  0.00    -0.392 OA
ATOM     35  H   UNL     1       1.791 -11.852  -9.318  0.00  0.00    +0.210 HD
ENDBRANCH  33  34
ENDBRANCH  32  33
ENDBRANCH  31  32
ENDBRANCH  28  31
ENDBRANCH   9  25
TORSDOF 8
