REMARK  Name = L47
REMARK  5 active torsions:
REMARK  status: ('A' for Active; 'I' for Inactive)
REMARK    1  A    between atoms: C_1  and  C_2
REMARK    2  A    between atoms: C_10  and  S_14
REMARK    3  A    between atoms: S_14  and  C_15
REMARK    4  A    between atoms: C_18  and  N_21
REMARK    5  A    between atoms: C_22  and  C_24
REMARK                            x       y       z     vdW  Elec       q    Type
REMARK                         _______ _______ _______ _____ _____    ______ ____
ROOT
ATOM      1  C   UNL     1       1.863  -0.046  -4.599  0.00  0.00    +0.065 C 
ATOM      2  C   UNL     1       2.194   0.180  -3.178  0.00  0.00    +0.035 A 
ATOM      3  C   UNL     1       1.926   1.235  -2.339  0.00  0.00    +0.068 A 
ATOM      4  C   UNL     1       2.506   0.891  -1.098  0.00  0.00    +0.146 A 
ATOM      5  N   UNL     1       3.057  -0.324  -1.138  0.00  0.00    -0.158 NA
ATOM      6  N   UNL     1       2.895  -0.712  -2.416  0.00  0.00    -0.280 N 
ATOM      7  N   UNL     1       2.445   1.660   0.011  0.00  0.00    -0.283 N 
ATOM      8  C   UNL     1       2.399   3.068   0.050  0.00  0.00    +0.128 A 
ATOM      9  N   UNL     1       2.895   3.787  -0.974  0.00  0.00    -0.207 NA
ATOM     10  C   UNL     1       2.783   5.122  -0.913  0.00  0.00    +0.195 A 
ATOM     11  N   UNL     1       2.178   5.794   0.077  0.00  0.00    -0.230 NA
ATOM     12  C   UNL     1       1.681   5.046   1.077  0.00  0.00    +0.117 A 
ATOM     13  C   UNL     1       1.780   3.676   1.123  0.00  0.00    +0.063 A 
ATOM     14  H   UNL     1       3.283  -1.606  -2.698  0.00  0.00    +0.189 HD
ATOM     15  H   UNL     1       2.895   1.268   0.829  0.00  0.00    +0.155 HD
ENDROOT
BRANCH  10  16
ATOM     16  S   UNL     1       3.375   6.057  -2.304  0.00  0.00    -0.050 S 
BRANCH  16  17
ATOM     17  C   UNL     1       5.057   6.390  -1.823  0.00  0.00    +0.016 A 
ATOM     18  C   UNL     1       5.971   5.361  -1.595  0.00  0.00    +0.017 A 
ATOM     19  C   UNL     1       7.301   5.647  -1.257  0.00  0.00    +0.024 A 
ATOM     20  C   UNL     1       7.747   6.965  -1.150  0.00  0.00    +0.033 A 
ATOM     21  C   UNL     1       6.833   7.999  -1.395  0.00  0.00    +0.024 A 
ATOM     22  C   UNL     1       5.502   7.712  -1.733  0.00  0.00    +0.017 A 
BRANCH  20  23
ATOM     23  N   UNL     1       9.072   7.320  -0.811  0.00  0.00    -0.286 N 
ATOM     24  C   UNL     1      10.122   6.457  -0.538  0.00  0.00    +0.214 C 
ATOM     25  O   UNL     1      10.082   5.229  -0.548  0.00  0.00    -0.276 OA
ATOM     26  C   UNL     1      11.414   7.153  -0.202  0.00  0.00    +0.109 C 
ATOM     27  H   UNL     1       9.265   8.311  -0.767  0.00  0.00    +0.155 HD
ENDBRANCH  20  23
ENDBRANCH  16  17
ENDBRANCH  10  16
TORSDOF 3
