REMARK  Name = L130
REMARK  6 active torsions:
REMARK  status: ('A' for Active; 'I' for Inactive)
REMARK    1  A    between atoms: C_1  and  C_2
REMARK    2  A    between atoms: C_4  and  C_7
REMARK    3  A    between atoms: C_7  and  N_8
REMARK    4  A    between atoms: N_11  and  C_14
REMARK    5  A    between atoms: C_22  and  C_24
REMARK    6  A    between atoms: C_27  and  N_30
REMARK                            x       y       z     vdW  Elec       q    Type
REMARK                         _______ _______ _______ _____ _____    ______ ____
ROOT
ATOM      1  C   UNL     1      -1.032  -6.996   0.481  0.00  0.00    +0.073 A 
ATOM      2  C   UNL     1      -0.541  -7.991  -0.388  0.00  0.00    +0.108 A 
ATOM      3  C   UNL     1      -0.452  -9.340  -0.076  0.00  0.00    +0.180 A 
ATOM      4  N   UNL     1      -0.798  -9.844   1.123  0.00  0.00    -0.233 NA
ATOM      5  C   UNL     1      -1.274  -8.922   1.982  0.00  0.00    +0.130 A 
ATOM      6  C   UNL     1      -1.429  -7.553   1.723  0.00  0.00    +0.059 A 
ATOM      7 BR   UNL     1      -2.311  -6.587   3.114  0.00  0.00    -0.047 Br
ATOM      8  N   UNL     1       0.020 -10.080  -1.119  0.00  0.00    -0.208 NA
ATOM      9  C   UNL     1       0.225  -9.219  -2.097  0.00  0.00    +0.141 A 
ATOM     10  N   UNL     1       0.003  -7.943  -1.647  0.00  0.00    -0.335 N 
ATOM     11  H   UNL     1       0.193  -7.108  -2.174  0.00  0.00    +0.167 HD
ENDROOT
BRANCH   1  15
ATOM     12  N   UNL     1      -0.519  -2.992  -0.796  0.00  0.00    -0.294 NA
ATOM     13  C   UNL     1       0.005  -3.444   0.508  0.00  0.00    +0.103 C 
ATOM     14  C   UNL     1      -0.870  -4.576   1.089  0.00  0.00    +0.120 C 
ATOM     15  N   UNL     1      -1.029  -5.668   0.112  0.00  0.00    -0.325 N 
ATOM     16  C   UNL     1      -1.460  -5.206  -1.223  0.00  0.00    +0.120 C 
ATOM     17  C   UNL     1      -0.479  -4.116  -1.733  0.00  0.00    +0.103 C 
BRANCH  12  18
ATOM     18  C   UNL     1       0.130  -1.772  -1.272  0.00  0.00    +0.143 C 
BRANCH  18  22
ATOM     19  C   UNL     1      -2.713   1.619   1.284  0.00  0.00    +0.089 C 
ATOM     20  C   UNL     1      -1.696   0.776   0.636  0.00  0.00    +0.135 A 
ATOM     21  C   UNL     1      -1.752  -0.334  -0.165  0.00  0.00    +0.072 A 
ATOM     22  C   UNL     1      -0.396  -0.626  -0.459  0.00  0.00    +0.098 A 
ATOM     23  N   UNL     1       0.428   0.241   0.144  0.00  0.00    -0.082 NA
ATOM     24  O   UNL     1      -0.395   1.120   0.832  0.00  0.00    -0.360 OA
ENDBRANCH  18  22
ENDBRANCH  12  18
ENDBRANCH   1  15
BRANCH   9  25
ATOM     25  C   UNL     1       0.675  -9.524  -3.448  0.00  0.00    +0.017 A 
ATOM     26  C   UNL     1       0.335  -8.729  -4.549  0.00  0.00    +0.013 A 
ATOM     27  C   UNL     1       0.800  -9.050  -5.833  0.00  0.00    +0.024 A 
ATOM     28  C   UNL     1       1.612 -10.169  -6.068  0.00  0.00    +0.030 A 
ATOM     29  C   UNL     1       1.932 -10.954  -4.950  0.00  0.00    +0.024 A 
ATOM     30  C   UNL     1       1.472 -10.648  -3.666  0.00  0.00    +0.013 A 
BRANCH  28  31
ATOM     31  N   UNL     1       2.087 -10.478  -7.321  0.00  0.00    -0.327 N 
ATOM     32  C   UNL     1       2.334  -9.470  -8.361  0.00  0.00    +0.120 C 
ATOM     33  C   UNL     1       3.744  -9.688  -8.963  0.00  0.00    +0.100 C 
ATOM     34  N   UNL     1       3.982 -11.060  -9.456  0.00  0.00    -0.313 NA
ATOM     35  C   UNL     1       3.687 -12.029  -8.380  0.00  0.00    +0.100 C 
ATOM     36  C   UNL     1       2.274 -11.864  -7.780  0.00  0.00    +0.120 C 
ATOM     37  H   UNL     1       4.963 -11.151  -9.718  0.00  0.00    +0.122 HD
ENDBRANCH  28  31
ENDBRANCH   9  25
TORSDOF 5
