REMARK  Name = L157
REMARK  9 active torsions:
REMARK  status: ('A' for Active; 'I' for Inactive)
REMARK    1  A    between atoms: C_1  and  C_2
REMARK    2  A    between atoms: C_2  and  C_3
REMARK    3  A    between atoms: C_2  and  C_4
REMARK    4  A    between atoms: C_4  and  N_5
REMARK    5  A    between atoms: N_8  and  C_11
REMARK    6  A    between atoms: C_19  and  C_21
REMARK    7  A    between atoms: C_24  and  N_27
REMARK    8  A    between atoms: N_27  and  C_28
REMARK    9  A    between atoms: N_27  and  C_29
REMARK                            x       y       z     vdW  Elec       q    Type
REMARK                         _______ _______ _______ _____ _____    ______ ____
ROOT
ATOM      1  C   UNL     1       6.220   0.780   2.551  0.00  0.00    +0.073 A 
ATOM      2  C   UNL     1       5.677   1.344   3.729  0.00  0.00    +0.108 A 
ATOM      3  C   UNL     1       6.324   1.303   4.959  0.00  0.00    +0.180 A 
ATOM      4  N   UNL     1       7.526   0.735   5.167  0.00  0.00    -0.233 NA
ATOM      5  C   UNL     1       8.089   0.237   4.052  0.00  0.00    +0.130 A 
ATOM      6  C   UNL     1       7.520   0.246   2.779  0.00  0.00    +0.059 A 
ATOM      7 BR   UNL     1       8.658  -0.355   1.366  0.00  0.00    -0.047 Br
ATOM      8  N   UNL     1       5.592   1.898   5.947  0.00  0.00    -0.208 NA
ATOM      9  C   UNL     1       4.492   2.334   5.369  0.00  0.00    +0.141 A 
ATOM     10  N   UNL     1       4.503   1.993   4.031  0.00  0.00    -0.335 N 
ATOM     11  H   UNL     1       3.748   2.171   3.391  0.00  0.00    +0.167 HD
ENDROOT
BRANCH   1  15
ATOM     12  N   UNL     1       4.440   0.627  -1.420  0.00  0.00    -0.299 NA
ATOM     13  C   UNL     1       4.651   1.899  -0.686  0.00  0.00    +0.103 C 
ATOM     14  C   UNL     1       4.661   1.804   0.867  0.00  0.00    +0.120 C 
ATOM     15  N   UNL     1       5.615   0.773   1.298  0.00  0.00    -0.325 N 
ATOM     16  C   UNL     1       5.355  -0.540   0.666  0.00  0.00    +0.120 C 
ATOM     17  C   UNL     1       5.386  -0.383  -0.877  0.00  0.00    +0.103 C 
BRANCH  12  18
ATOM     18  C   UNL     1       3.055   0.127  -1.393  0.00  0.00    +0.087 C 
BRANCH  18  20
ATOM     19  C   UNL     1       2.388   1.226  -3.610  0.00  0.00    +0.008 C 
ATOM     20  C   UNL     1       2.027   1.012  -2.138  0.00  0.00    -0.003 C 
ATOM     21  C   UNL     1       0.630   0.385  -2.051  0.00  0.00    +0.008 C 
ENDBRANCH  18  20
ENDBRANCH  12  18
ENDBRANCH   1  15
BRANCH   9  22
ATOM     22  C   UNL     1       3.396   3.034   6.049  0.00  0.00    +0.017 A 
ATOM     23  C   UNL     1       2.547   3.924   5.394  0.00  0.00    +0.013 A 
ATOM     24  C   UNL     1       1.520   4.583   6.098  0.00  0.00    +0.024 A 
ATOM     25  C   UNL     1       1.289   4.384   7.471  0.00  0.00    +0.029 A 
ATOM     26  C   UNL     1       2.163   3.491   8.108  0.00  0.00    +0.024 A 
ATOM     27  C   UNL     1       3.198   2.838   7.418  0.00  0.00    +0.013 A 
BRANCH  25  28
ATOM     28  N   UNL     1       0.287   5.059   8.147  0.00  0.00    -0.336 N 
ATOM     29  C   UNL     1      -0.961   5.445   7.493  0.00  0.00    +0.129 C 
ATOM     30  C   UNL     1       0.310   5.253   9.593  0.00  0.00    +0.129 C 
ENDBRANCH  25  28
ENDBRANCH   9  22
TORSDOF 5
