REMARK  Name = L120
REMARK  6 active torsions:
REMARK  status: ('A' for Active; 'I' for Inactive)
REMARK    1  A    between atoms: C_1  and  O_2
REMARK    2  A    between atoms: O_2  and  C_3
REMARK    3  A    between atoms: C_6  and  C_9
REMARK    4  A    between atoms: C_15  and  N_18
REMARK    5  A    between atoms: N_21  and  C_24
REMARK    6  A    between atoms: C_24  and  C_25
REMARK                            x       y       z     vdW  Elec       q    Type
REMARK                         _______ _______ _______ _____ _____    ______ ____
ROOT
ATOM      1  C   UNL     1       5.339  -3.241  -3.626  0.00  0.00    +0.141 A 
ATOM      2  N   UNL     1       5.891  -2.844  -4.754  0.00  0.00    -0.208 NA
ATOM      3  C   UNL     1       6.537  -3.941  -5.254  0.00  0.00    +0.180 A 
ATOM      4  N   UNL     1       7.266  -3.944  -6.385  0.00  0.00    -0.233 NA
ATOM      5  C   UNL     1       7.857  -5.127  -6.642  0.00  0.00    +0.130 A 
ATOM      6  C   UNL     1       7.763  -6.287  -5.863  0.00  0.00    +0.059 A 
ATOM      7  C   UNL     1       6.974  -6.315  -4.685  0.00  0.00    +0.073 A 
ATOM      8  C   UNL     1       6.375  -5.058  -4.442  0.00  0.00    +0.108 A 
ATOM      9  N   UNL     1       5.527  -4.593  -3.467  0.00  0.00    -0.335 N 
ATOM     10 BR   UNL     1       8.900  -7.712  -6.430  0.00  0.00    -0.047 Br
ATOM     11  H   UNL     1       5.129  -5.145  -2.725  0.00  0.00    +0.167 HD
ENDROOT
BRANCH   1  15
ATOM     12  C   UNL     1       3.161  -0.815  -0.848  0.00  0.00    +0.120 A 
ATOM     13  C   UNL     1       3.196  -0.489  -2.205  0.00  0.00    +0.046 A 
ATOM     14  C   UNL     1       3.910  -1.282  -3.110  0.00  0.00    +0.015 A 
ATOM     15  C   UNL     1       4.603  -2.414  -2.669  0.00  0.00    +0.018 A 
ATOM     16  C   UNL     1       4.593  -2.715  -1.299  0.00  0.00    +0.015 A 
ATOM     17  C   UNL     1       3.877  -1.921  -0.394  0.00  0.00    +0.046 A 
BRANCH  12  19
ATOM     18  C   UNL     1       1.937  -0.518   1.153  0.00  0.00    +0.277 C 
ATOM     19  O   UNL     1       2.441   0.037  -0.057  0.00  0.00    -0.495 OA
ENDBRANCH  12  19
ENDBRANCH   1  15
BRANCH   7  20
ATOM     20  N   UNL     1       6.829  -7.381  -3.820  0.00  0.00    -0.325 N 
ATOM     21  C   UNL     1       6.642  -8.777  -4.255  0.00  0.00    +0.120 C 
ATOM     22  C   UNL     1       7.602  -9.714  -3.467  0.00  0.00    +0.103 C 
ATOM     23  N   UNL     1       7.510  -9.598  -1.983  0.00  0.00    -0.295 NA
ATOM     24  C   UNL     1       7.694  -8.169  -1.635  0.00  0.00    +0.103 C 
ATOM     25  C   UNL     1       6.749  -7.189  -2.363  0.00  0.00    +0.120 C 
BRANCH  23  26
ATOM     26  C   UNL     1       6.232 -10.159  -1.509  0.00  0.00    +0.121 C 
BRANCH  26  27
ATOM     27  C   UNL     1       6.017 -10.094  -0.021  0.00  0.00    -0.015 A 
ATOM     28  C   UNL     1       4.922  -9.415   0.505  0.00  0.00    +0.115 A 
ATOM     29  N   UNL     1       4.632  -9.337   1.824  0.00  0.00    -0.263 NA
ATOM     30  C   UNL     1       5.468  -9.977   2.664  0.00  0.00    +0.111 A 
ATOM     31  C   UNL     1       6.590 -10.680   2.246  0.00  0.00    +0.020 A 
ATOM     32  C   UNL     1       6.867 -10.734   0.883  0.00  0.00    +0.008 A 
ENDBRANCH  26  27
ENDBRANCH  23  26
ENDBRANCH   7  20
TORSDOF 5
