REMARK  Name = L156
REMARK  5 active torsions:
REMARK  status: ('A' for Active; 'I' for Inactive)
REMARK    1  A    between atoms: C_1  and  C_2
REMARK    2  A    between atoms: C_4  and  C_7
REMARK    3  A    between atoms: C_7  and  N_8
REMARK    4  A    between atoms: N_11  and  C_14
REMARK    5  A    between atoms: C_22  and  C_24
REMARK                            x       y       z     vdW  Elec       q    Type
REMARK                         _______ _______ _______ _____ _____    ______ ____
ROOT
ATOM      1  C   UNL     1      -1.069  -7.009   0.567  0.00  0.00    +0.073 A 
ATOM      2  C   UNL     1      -0.871  -7.402   1.906  0.00  0.00    +0.108 A 
ATOM      3  C   UNL     1      -0.631  -8.704   2.319  0.00  0.00    +0.180 A 
ATOM      4  N   UNL     1      -0.628  -9.759   1.484  0.00  0.00    -0.233 NA
ATOM      5  C   UNL     1      -0.852  -9.423   0.198  0.00  0.00    +0.130 A 
ATOM      6  C   UNL     1      -1.045  -8.127  -0.303  0.00  0.00    +0.059 A 
ATOM      7 BR   UNL     1      -1.152  -8.038  -2.206  0.00  0.00    -0.047 Br
ATOM      8  N   UNL     1      -0.386  -8.784   3.664  0.00  0.00    -0.207 NA
ATOM      9  C   UNL     1      -0.519  -7.550   4.098  0.00  0.00    +0.162 A 
ATOM     10  N   UNL     1      -0.906  -6.709   3.093  0.00  0.00    -0.334 N 
ATOM     11  H   UNL     1      -1.117  -5.730   3.208  0.00  0.00    +0.168 HD
ENDROOT
BRANCH   1  15
ATOM     12  N   UNL     1      -1.937  -2.901  -0.153  0.00  0.00    -0.294 NA
ATOM     13  C   UNL     1      -2.848  -3.958  -0.647  0.00  0.00    +0.103 C 
ATOM     14  C   UNL     1      -2.084  -5.271  -0.929  0.00  0.00    +0.120 C 
ATOM     15  N   UNL     1      -1.317  -5.686   0.261  0.00  0.00    -0.325 N 
ATOM     16  C   UNL     1      -0.446  -4.609   0.785  0.00  0.00    +0.120 C 
ATOM     17  C   UNL     1      -1.311  -3.358   1.094  0.00  0.00    +0.103 C 
BRANCH  12  18
ATOM     18  C   UNL     1      -2.606  -1.603  -0.043  0.00  0.00    +0.143 C 
BRANCH  18  22
ATOM     19  C   UNL     1      -2.080  -0.036  -4.879  0.00  0.00    +0.089 C 
ATOM     20  C   UNL     1      -2.474  -0.419  -3.514  0.00  0.00    +0.135 A 
ATOM     21  C   UNL     1      -1.804  -0.959  -2.448  0.00  0.00    +0.072 A 
ATOM     22  C   UNL     1      -2.783  -1.050  -1.426  0.00  0.00    +0.098 A 
ATOM     23  N   UNL     1      -3.974  -0.611  -1.856  0.00  0.00    -0.082 NA
ATOM     24  O   UNL     1      -3.774  -0.216  -3.170  0.00  0.00    -0.360 OA
ENDBRANCH  18  22
ENDBRANCH  12  18
ENDBRANCH   1  15
BRANCH   9  25
ATOM     25  C   UNL     1      -0.277  -7.090   5.487  0.00  0.00    +0.137 A 
ATOM     26  C   UNL     1       0.169  -7.925   6.490  0.00  0.00    +0.100 A 
ATOM     27  S   UNL     1       0.324  -6.965   7.904  0.00  0.00    +0.029 S 
ATOM     28  N   UNL     1      -0.177  -5.561   7.128  0.00  0.00    -0.110 NA
ATOM     29  N   UNL     1      -0.461  -5.764   5.849  0.00  0.00    -0.138 NA
ENDBRANCH   9  25
TORSDOF 4
