REMARK  Name = L171
REMARK  5 active torsions:
REMARK  status: ('A' for Active; 'I' for Inactive)
REMARK    1  A    between atoms: C_3  and  C_24
REMARK    2  A    between atoms: C_5  and  N_7
REMARK    3  A    between atoms: N_14  and  C_15
REMARK    4  A    between atoms: C_18  and  C_21
REMARK    5  A    between atoms: C_21  and  O_23
REMARK                            x       y       z     vdW  Elec       q    Type
REMARK                         _______ _______ _______ _____ _____    ______ ____
ROOT
ATOM      1  N   UNL     1      -1.740  -2.283   0.047  0.00  0.00    -0.299 N 
ATOM      2  C   UNL     1      -1.219  -3.595   0.139  0.00  0.00    +0.128 A 
ATOM      3  N   UNL     1      -1.396  -4.480  -0.862  0.00  0.00    -0.199 NA
ATOM      4  C   UNL     1      -0.903  -5.714  -0.704  0.00  0.00    +0.221 A 
ATOM      5  N   UNL     1      -0.203  -6.099   0.375  0.00  0.00    -0.223 NA
ATOM      6  C   UNL     1      -0.013  -5.192   1.341  0.00  0.00    +0.118 A 
ATOM      7  C   UNL     1      -0.525  -3.923   1.285  0.00  0.00    +0.063 A 
ATOM      8  N   UNL     1      -1.113  -6.619  -1.747  0.00  0.00    -0.284 N 
ATOM      9  H   UNL     1      -2.417  -2.110   0.782  0.00  0.00    +0.154 HD
ATOM     10  H   UNL     1      -1.683  -6.175  -2.456  0.00  0.00    +0.155 HD
ENDROOT
BRANCH   1  15
ATOM     11  C   UNL     1      -1.317  -0.914  -3.392  0.00  0.00    +0.002 A 
ATOM     12  C   UNL     1      -2.227   0.139  -3.373  0.00  0.00    +0.012 A 
ATOM     13  C   UNL     1      -3.000   0.386  -2.231  0.00  0.00    +0.057 A 
ATOM     14  C   UNL     1      -2.853  -0.456  -1.112  0.00  0.00    +0.035 A 
ATOM     15  C   UNL     1      -1.951  -1.530  -1.123  0.00  0.00    +0.033 A 
ATOM     16  C   UNL     1      -1.177  -1.732  -2.273  0.00  0.00    +0.023 A 
BRANCH  13  17
ATOM     17  C   UNL     1      -3.959   1.548  -2.181  0.00  0.00    +0.417 C 
ATOM     18  F   UNL     1      -3.926   2.333  -3.294  0.00  0.00    -0.166 F 
ATOM     19  F   UNL     1      -5.254   1.150  -2.043  0.00  0.00    -0.166 F 
ATOM     20  F   UNL     1      -3.712   2.381  -1.132  0.00  0.00    -0.166 F 
ENDBRANCH  13  17
ENDBRANCH   1  15
BRANCH   8  21
ATOM     21  C   UNL     1      -1.266  -8.013  -1.655  0.00  0.00    +0.034 A 
ATOM     22  C   UNL     1      -1.709  -8.648  -0.487  0.00  0.00    +0.024 A 
ATOM     23  C   UNL     1      -1.846 -10.037  -0.427  0.00  0.00    +0.017 A 
ATOM     24  C   UNL     1      -1.527 -10.823  -1.537  0.00  0.00    +0.059 A 
ATOM     25  C   UNL     1      -1.099 -10.204  -2.718  0.00  0.00    +0.017 A 
ATOM     26  C   UNL     1      -0.977  -8.808  -2.772  0.00  0.00    +0.024 A 
BRANCH  24  27
ATOM     27  C   UNL     1      -1.716 -12.292  -1.419  0.00  0.00    +0.337 C 
ATOM     28  O   UNL     1      -2.550 -12.795  -0.687  0.00  0.00    -0.245 OA
BRANCH  27  29
ATOM     29  O   UNL     1      -0.867 -13.021  -2.175  0.00  0.00    -0.477 OA
ATOM     30  H   UNL     1      -0.129 -12.518  -2.564  0.00  0.00    +0.295 HD
ENDBRANCH  27  29
ENDBRANCH  24  27
ENDBRANCH   8  21
TORSDOF 5
