REMARK  Name = L179
REMARK  8 active torsions:
REMARK  status: ('A' for Active; 'I' for Inactive)
REMARK    1  A    between atoms: C_3  and  C_25
REMARK    2  A    between atoms: C_5  and  N_7
REMARK    3  A    between atoms: N_14  and  C_15
REMARK    4  A    between atoms: C_19  and  C_21
REMARK    5  A    between atoms: C_25  and  C_26
REMARK    6  A    between atoms: C_26  and  C_27
REMARK    7  A    between atoms: C_27  and  C_28
REMARK    8  A    between atoms: C_28  and  N_29
REMARK                            x       y       z     vdW  Elec       q    Type
REMARK                         _______ _______ _______ _____ _____    ______ ____
ROOT
ATOM      1  N   UNL     1      -1.601  -2.287   0.034  0.00  0.00    -0.284 N 
ATOM      2  C   UNL     1      -1.248  -3.633   0.144  0.00  0.00    +0.221 A 
ATOM      3  N   UNL     1      -2.082  -4.514  -0.424  0.00  0.00    -0.223 NA
ATOM      4  C   UNL     1      -1.693  -5.803  -0.418  0.00  0.00    +0.118 A 
ATOM      5  C   UNL     1      -0.513  -6.243   0.132  0.00  0.00    +0.063 A 
ATOM      6  C   UNL     1       0.261  -5.283   0.741  0.00  0.00    +0.128 A 
ATOM      7  N   UNL     1      -0.110  -3.996   0.742  0.00  0.00    -0.199 NA
ATOM      8  N   UNL     1       1.465  -5.660   1.383  0.00  0.00    -0.299 N 
ATOM      9  H   UNL     1      -2.434  -2.226  -0.534  0.00  0.00    +0.155 HD
ATOM     10  H   UNL     1       2.082  -6.117   0.722  0.00  0.00    +0.154 HD
ENDROOT
BRANCH   1  15
ATOM     11  C   UNL     1       1.272   0.050   0.599  0.00  0.00    +0.002 A 
ATOM     12  C   UNL     1       0.791   1.200  -0.015  0.00  0.00    +0.004 A 
ATOM     13  C   UNL     1      -0.488   1.212  -0.583  0.00  0.00    -0.046 A 
ATOM     14  C   UNL     1      -1.266   0.042  -0.532  0.00  0.00    +0.027 A 
ATOM     15  C   UNL     1      -0.784  -1.142   0.051  0.00  0.00    +0.034 A 
ATOM     16  C   UNL     1       0.483  -1.101   0.643  0.00  0.00    +0.023 A 
BRANCH  13  17
ATOM     17  C   UNL     1      -1.046   2.466  -1.212  0.00  0.00    +0.035 C 
BRANCH  17  18
ATOM     18  C   UNL     1      -0.184   3.066  -2.328  0.00  0.00    +0.006 C 
BRANCH  18  19
ATOM     19  C   UNL     1      -0.054   2.148  -3.549  0.00  0.00    +0.015 C 
BRANCH  19  20
ATOM     20  C   UNL     1       0.788   2.816  -4.635  0.00  0.00    +0.077 C 
BRANCH  20  21
ATOM     21  N   UNL     1       0.911   1.943  -5.796  0.00  0.00    -0.330 NA
ATOM     22  H   UNL     1       1.361   1.071  -5.520  0.00  0.00    +0.118 HD
ATOM     23  H   UNL     1       1.528   2.378  -6.481  0.00  0.00    +0.118 HD
ENDBRANCH  20  21
ENDBRANCH  19  20
ENDBRANCH  18  19
ENDBRANCH  17  18
ENDBRANCH  13  17
ENDBRANCH   1  15
BRANCH   8  24
ATOM     24  C   UNL     1       2.157  -4.863   2.326  0.00  0.00    +0.033 A 
ATOM     25  C   UNL     1       3.555  -4.829   2.345  0.00  0.00    +0.023 A 
ATOM     26  C   UNL     1       4.235  -4.052   3.288  0.00  0.00    +0.002 A 
ATOM     27  C   UNL     1       3.527  -3.306   4.232  0.00  0.00    +0.012 A 
ATOM     28  C   UNL     1       2.128  -3.337   4.248  0.00  0.00    +0.057 A 
ATOM     29  C   UNL     1       1.461  -4.124   3.296  0.00  0.00    +0.035 A 
BRANCH  28  30
ATOM     30  C   UNL     1       1.326  -2.552   5.253  0.00  0.00    +0.417 C 
ATOM     31  F   UNL     1       2.094  -1.840   6.123  0.00  0.00    -0.166 F 
ATOM     32  F   UNL     1       0.491  -1.647   4.668  0.00  0.00    -0.166 F 
ATOM     33  F   UNL     1       0.533  -3.348   6.022  0.00  0.00    -0.166 F 
ENDBRANCH  28  30
ENDBRANCH   8  24
TORSDOF 8
