REMARK  Name = L154
REMARK  6 active torsions:
REMARK  status: ('A' for Active; 'I' for Inactive)
REMARK    1  A    between atoms: C_1  and  C_2
REMARK    2  A    between atoms: C_4  and  C_7
REMARK    3  A    between atoms: C_7  and  N_8
REMARK    4  A    between atoms: N_11  and  C_14
REMARK    5  A    between atoms: N_27  and  C_30
REMARK    6  A    between atoms: C_30  and  N_31
REMARK                            x       y       z     vdW  Elec       q    Type
REMARK                         _______ _______ _______ _____ _____    ______ ____
ROOT
ATOM      1  C   UNL     1      -0.985  -7.017   0.489  0.00  0.00    +0.073 A 
ATOM      2  C   UNL     1      -0.475  -8.001  -0.379  0.00  0.00    +0.109 A 
ATOM      3  C   UNL     1      -0.422  -9.358  -0.099  0.00  0.00    +0.181 A 
ATOM      4  N   UNL     1      -0.796  -9.885   1.082  0.00  0.00    -0.233 NA
ATOM      5  C   UNL     1      -1.266  -8.967   1.951  0.00  0.00    +0.130 A 
ATOM      6  C   UNL     1      -1.403  -7.591   1.716  0.00  0.00    +0.059 A 
ATOM      7 BR   UNL     1      -2.284  -6.644   3.119  0.00  0.00    -0.047 Br
ATOM      8  N   UNL     1       0.029 -10.082  -1.167  0.00  0.00    -0.195 NA
ATOM      9  C   UNL     1       0.313  -9.198  -2.092  0.00  0.00    +0.198 A 
ATOM     10  N   UNL     1       0.110  -7.933  -1.616  0.00  0.00    -0.323 N 
ATOM     11  N   UNL     1       0.690  -9.409  -3.373  0.00  0.00    -0.299 N 
ATOM     12  C   UNL     1       1.469  -8.451  -4.162  0.00  0.00    +0.123 C 
ATOM     13  C   UNL     1       2.786  -9.084  -4.678  0.00  0.00    +0.105 C 
ATOM     14  N   UNL     1       2.639 -10.396  -5.347  0.00  0.00    -0.281 NA
ATOM     15  C   UNL     1       1.910 -11.294  -4.410  0.00  0.00    +0.105 C 
ATOM     16  C   UNL     1       0.545 -10.761  -3.932  0.00  0.00    +0.123 C 
ATOM     17  H   UNL     1       0.262  -7.090  -2.139  0.00  0.00    +0.169 HD
ENDROOT
BRANCH   1  21
ATOM     18  N   UNL     1      -0.627  -2.969  -0.758  0.00  0.00    -0.294 NA
ATOM     19  C   UNL     1      -0.082  -3.407   0.545  0.00  0.00    +0.103 C 
ATOM     20  C   UNL     1      -0.889  -4.595   1.112  0.00  0.00    +0.120 C 
ATOM     21  N   UNL     1      -0.963  -5.687   0.125  0.00  0.00    -0.325 N 
ATOM     22  C   UNL     1      -1.441  -5.235  -1.202  0.00  0.00    +0.120 C 
ATOM     23  C   UNL     1      -0.531  -4.086  -1.709  0.00  0.00    +0.103 C 
BRANCH  18  24
ATOM     24  C   UNL     1      -0.033  -1.718  -1.225  0.00  0.00    +0.143 C 
BRANCH  24  28
ATOM     25  C   UNL     1      -2.989   1.552   1.363  0.00  0.00    +0.089 C 
ATOM     26  C   UNL     1      -1.944   0.747   0.708  0.00  0.00    +0.135 A 
ATOM     27  C   UNL     1      -1.964  -0.357  -0.101  0.00  0.00    +0.072 A 
ATOM     28  C   UNL     1      -0.599  -0.601  -0.399  0.00  0.00    +0.098 A 
ATOM     29  N   UNL     1       0.196   0.290   0.209  0.00  0.00    -0.082 NA
ATOM     30  O   UNL     1      -0.655   1.135   0.906  0.00  0.00    -0.360 OA
ENDBRANCH  24  28
ENDBRANCH  18  24
ENDBRANCH   1  21
BRANCH  14  31
ATOM     31  C   UNL     1       1.934 -10.220  -6.633  0.00  0.00    +0.230 C 
BRANCH  31  32
ATOM     32  N   UNL     1       1.765 -11.499  -7.319  0.00  0.00    -0.257 N 
ATOM     33  C   UNL     1       2.753 -12.301  -7.831  0.00  0.00    +0.110 A 
ATOM     34  C   UNL     1       2.115 -13.373  -8.409  0.00  0.00    +0.041 A 
ATOM     35  C   UNL     1       0.746 -13.130  -8.199  0.00  0.00    +0.134 A 
ATOM     36  N   UNL     1       0.524 -11.991  -7.537  0.00  0.00    -0.178 NA
ENDBRANCH  31  32
ENDBRANCH  14  31
TORSDOF 5
