REMARK  Name = L169
REMARK  5 active torsions:
REMARK  status: ('A' for Active; 'I' for Inactive)
REMARK    1  A    between atoms: C_3  and  C_4
REMARK    2  A    between atoms: N_6  and  C_7
REMARK    3  A    between atoms: C_11  and  N_13
REMARK    4  A    between atoms: N_20  and  C_21
REMARK    5  A    between atoms: C_25  and  C_27
REMARK                            x       y       z     vdW  Elec       q    Type
REMARK                         _______ _______ _______ _____ _____    ______ ____
ROOT
ATOM      1  N   UNL     1       3.918  -4.113   4.615  0.00  0.00    -0.284 N 
ATOM      2  C   UNL     1       2.798  -4.906   4.347  0.00  0.00    +0.221 A 
ATOM      3  N   UNL     1       2.310  -5.625   5.364  0.00  0.00    -0.223 NA
ATOM      4  C   UNL     1       1.185  -6.315   5.118  0.00  0.00    +0.118 A 
ATOM      5  C   UNL     1       0.528  -6.302   3.911  0.00  0.00    +0.063 A 
ATOM      6  C   UNL     1       1.117  -5.572   2.903  0.00  0.00    +0.128 A 
ATOM      7  N   UNL     1       2.248  -4.887   3.123  0.00  0.00    -0.199 NA
ATOM      8  N   UNL     1       0.535  -5.590   1.614  0.00  0.00    -0.299 N 
ATOM      9  H   UNL     1       4.063  -4.105   5.617  0.00  0.00    +0.155 HD
ATOM     10  H   UNL     1      -0.456  -5.389   1.636  0.00  0.00    +0.154 HD
ENDROOT
BRANCH   1  15
ATOM     11  C   UNL     1       3.546  -0.852   2.819  0.00  0.00    +0.035 A 
ATOM     12  C   UNL     1       4.888  -0.511   2.673  0.00  0.00    +0.023 A 
ATOM     13  C   UNL     1       5.892  -1.323   3.200  0.00  0.00    +0.004 A 
ATOM     14  C   UNL     1       5.561  -2.503   3.861  0.00  0.00    +0.023 A 
ATOM     15  C   UNL     1       4.223  -2.889   3.986  0.00  0.00    +0.035 A 
ATOM     16  C   UNL     1       3.221  -2.026   3.509  0.00  0.00    +0.046 A 
BRANCH  11  19
ATOM     17  C   UNL     1       2.629   0.886   1.315  0.00  0.00    +0.220 C 
ATOM     18  O   UNL     1       3.659   1.181   0.716  0.00  0.00    -0.275 OA
ATOM     19  N   UNL     1       2.492  -0.072   2.296  0.00  0.00    -0.285 N 
ATOM     20  H   UNL     1       1.552  -0.329   2.572  0.00  0.00    +0.155 HD
BRANCH  17  23
ATOM     21  C   UNL     1       0.895   1.535  -0.507  0.00  0.00    +0.013 C 
ATOM     22  C   UNL     1       1.419   2.817   0.078  0.00  0.00    +0.013 C 
ATOM     23  C   UNL     1       1.355   1.568   0.936  0.00  0.00    +0.075 C 
ENDBRANCH  17  23
ENDBRANCH  11  19
ENDBRANCH   1  15
BRANCH   8  24
ATOM     24  C   UNL     1       1.173  -5.247   0.401  0.00  0.00    +0.033 A 
ATOM     25  C   UNL     1       0.480  -4.567  -0.608  0.00  0.00    +0.023 A 
ATOM     26  C   UNL     1       1.116  -4.234  -1.805  0.00  0.00    +0.002 A 
ATOM     27  C   UNL     1       2.451  -4.581  -2.016  0.00  0.00    +0.012 A 
ATOM     28  C   UNL     1       3.164  -5.268  -1.026  0.00  0.00    +0.057 A 
ATOM     29  C   UNL     1       2.515  -5.590   0.175  0.00  0.00    +0.035 A 
BRANCH  28  30
ATOM     30  C   UNL     1       4.604  -5.668  -1.220  0.00  0.00    +0.417 C 
ATOM     31  F   UNL     1       5.114  -5.289  -2.427  0.00  0.00    -0.166 F 
ATOM     32  F   UNL     1       5.436  -5.137  -0.283  0.00  0.00    -0.166 F 
ATOM     33  F   UNL     1       4.782  -7.018  -1.156  0.00  0.00    -0.166 F 
ENDBRANCH  28  30
ENDBRANCH   8  24
TORSDOF 5
