REMARK  Name = L163
REMARK  5 active torsions:
REMARK  status: ('A' for Active; 'I' for Inactive)
REMARK    1  A    between atoms: N_6  and  C_7
REMARK    2  A    between atoms: C_7  and  C_8
REMARK    3  A    between atoms: C_15  and  C_17
REMARK    4  A    between atoms: C_18  and  N_22
REMARK    5  A    between atoms: C_23  and  C_25
REMARK                            x       y       z     vdW  Elec       q    Type
REMARK                         _______ _______ _______ _____ _____    ______ ____
ROOT
ATOM      1  C   UNL     1      -2.073   1.387  -2.286  0.00  0.00    -0.031 A 
ATOM      2  C   UNL     1      -3.207   1.299  -3.110  0.00  0.00    +0.032 A 
ATOM      3  C   UNL     1      -3.720   2.499  -3.598  0.00  0.00    +0.067 A 
ATOM      4  C   UNL     1      -3.160   3.744  -3.334  0.00  0.00    +0.090 A 
ATOM      5  C   UNL     1      -1.995   3.819  -2.565  0.00  0.00    +0.030 A 
ATOM      6  C   UNL     1      -1.470   2.633  -2.035  0.00  0.00    +0.007 A 
ATOM      7  N   UNL     1      -3.918   4.752  -3.881  0.00  0.00    -0.226 NA
ATOM      8  C   UNL     1      -4.959   4.144  -4.401  0.00  0.00    +0.159 A 
ATOM      9  N   UNL     1      -4.807   2.784  -4.376  0.00  0.00    -0.337 N 
ATOM     10  H   UNL     1      -5.428   2.113  -4.803  0.00  0.00    +0.167 HD
ENDROOT
BRANCH   8  11
ATOM     11  C   UNL     1      -6.095   4.800  -4.934  0.00  0.00    +0.122 A 
ATOM     12  C   UNL     1      -7.391   4.384  -5.145  0.00  0.00    +0.082 A 
ATOM     13  C   UNL     1      -7.992   5.457  -5.846  0.00  0.00    +0.158 A 
ATOM     14  N   UNL     1      -7.163   6.495  -6.004  0.00  0.00    -0.180 NA
ATOM     15  N   UNL     1      -6.020   6.069  -5.436  0.00  0.00    -0.272 N 
ATOM     16  H   UNL     1      -5.203   6.672  -5.452  0.00  0.00    +0.189 HD
BRANCH  12  17
ATOM     17  N   UNL     1      -7.932   3.169  -4.747  0.00  0.00    -0.278 N 
ATOM     18  C   UNL     1      -8.822   2.487  -5.555  0.00  0.00    +0.248 C 
ATOM     19  O   UNL     1      -9.158   2.834  -6.682  0.00  0.00    -0.270 OA
ATOM     20  H   UNL     1      -7.502   2.695  -3.964  0.00  0.00    +0.155 HD
BRANCH  18  21
ATOM     21  C   UNL     1      -9.296   1.177  -5.043  0.00  0.00    +0.037 A 
ATOM     22  C   UNL     1      -9.669   0.998  -3.706  0.00  0.00    +0.016 A 
ATOM     23  C   UNL     1     -10.182  -0.233  -3.293  0.00  0.00    +0.039 A 
ATOM     24  C   UNL     1     -10.312  -1.274  -4.211  0.00  0.00    +0.123 A 
ATOM     25  C   UNL     1      -9.925  -1.112  -5.535  0.00  0.00    +0.039 A 
ATOM     26  C   UNL     1      -9.422   0.119  -5.956  0.00  0.00    +0.016 A 
ATOM     27  F   UNL     1     -10.827  -2.443  -3.812  0.00  0.00    -0.205 F 
ENDBRANCH  18  21
ENDBRANCH  12  17
ENDBRANCH   8  11
BRANCH   1  28
ATOM     28  C   UNL     1      -1.506   0.133  -1.653  0.00  0.00    +0.119 C 
BRANCH  28  34
ATOM     29  C   UNL     1      -0.481  -2.050  -1.923  0.00  0.00    +0.113 C 
ATOM     30  C   UNL     1       0.826  -1.792  -1.150  0.00  0.00    +0.175 C 
ATOM     31  O   UNL     1       1.845  -1.260  -2.005  0.00  0.00    -0.377 OA
ATOM     32  C   UNL     1       1.403  -0.075  -2.680  0.00  0.00    +0.175 C 
ATOM     33  C   UNL     1       0.101  -0.323  -3.460  0.00  0.00    +0.113 C 
ATOM     34  N   UNL     1      -1.002  -0.852  -2.624  0.00  0.00    -0.294 NA
ENDBRANCH  28  34
ENDBRANCH   1  28
TORSDOF 5
