REMARK  Name = L74
REMARK  7 active torsions:
REMARK  status: ('A' for Active; 'I' for Inactive)
REMARK    1  A    between atoms: C_1  and  C_2
REMARK    2  A    between atoms: C_10  and  S_17
REMARK    3  A    between atoms: S_17  and  C_18
REMARK    4  A    between atoms: C_21  and  N_24
REMARK    5  A    between atoms: C_25  and  C_27
REMARK    6  A    between atoms: C_27  and  N_28
REMARK    7  A    between atoms: C_31  and  C_33
REMARK                            x       y       z     vdW  Elec       q    Type
REMARK                         _______ _______ _______ _____ _____    ______ ____
ROOT
ATOM      1  C   UNL     1       0.301   4.794   3.705  0.00  0.00    +0.016 A 
ATOM      2  C   UNL     1      -0.972   4.750   4.302  0.00  0.00    +0.017 A 
ATOM      3  C   UNL     1      -1.236   3.878   5.364  0.00  0.00    +0.024 A 
ATOM      4  C   UNL     1      -0.238   3.041   5.854  0.00  0.00    +0.033 A 
ATOM      5  C   UNL     1       1.037   3.082   5.283  0.00  0.00    +0.024 A 
ATOM      6  C   UNL     1       1.296   3.944   4.201  0.00  0.00    +0.017 A 
ENDROOT
BRANCH   4   7
ATOM      7  N   UNL     1      -0.527   2.215   6.955  0.00  0.00    -0.284 N 
ATOM      8  C   UNL     1      -0.976   0.905   6.788  0.00  0.00    +0.231 C 
ATOM      9  O   UNL     1      -1.272   0.425   5.699  0.00  0.00    -0.274 OA
ATOM     10  H   UNL     1      -0.099   2.469   7.838  0.00  0.00    +0.155 HD
BRANCH   8  11
ATOM     11  C   UNL     1      -1.109   0.117   8.113  0.00  0.00    +0.180 C 
BRANCH  11  12
ATOM     12  N   UNL     1      -0.345  -1.144   8.101  0.00  0.00    -0.293 NA
ATOM     13  C   UNL     1      -0.519  -1.937   9.320  0.00  0.00    +0.085 C 
ATOM     14  C   UNL     1       0.724  -1.668  10.150  0.00  0.00    +0.029 C 
ATOM     15  C   UNL     1       1.827  -1.597   9.104  0.00  0.00    +0.090 C 
ATOM     16  C   UNL     1       1.108  -0.983   7.893  0.00  0.00    +0.097 C 
BRANCH  15  17
ATOM     17  C   UNL     1       2.474  -2.957   8.812  0.00  0.00    +0.220 C 
ATOM     18  O   UNL     1       2.351  -3.519   7.725  0.00  0.00    -0.275 OA
ATOM     19  N   UNL     1       3.244  -3.522   9.812  0.00  0.00    -0.301 N 
ATOM     20  C   UNL     1       3.551  -2.995  11.127  0.00  0.00    +0.108 C 
ATOM     21  C   UNL     1       4.938  -3.545  11.403  0.00  0.00    +0.020 C 
ATOM     22  C   UNL     1       4.890  -4.937  10.780  0.00  0.00    +0.020 C 
ATOM     23  C   UNL     1       3.906  -4.805   9.617  0.00  0.00    +0.108 C 
ENDBRANCH  15  17
ENDBRANCH  11  12
ENDBRANCH   8  11
ENDBRANCH   4   7
BRANCH   1  24
ATOM     24  S   UNL     1       0.548   5.815   2.264  0.00  0.00    -0.048 S 
BRANCH  24  34
ATOM     25  C   UNL     1      -0.890   7.429   8.234  0.00  0.00    +0.065 C 
ATOM     26  C   UNL     1       0.275   8.091   7.631  0.00  0.00    +0.035 A 
ATOM     27  C   UNL     1       0.685   8.192   6.320  0.00  0.00    +0.068 A 
ATOM     28  C   UNL     1       1.908   8.900   6.345  0.00  0.00    +0.146 A 
ATOM     29  N   UNL     1       2.209   9.284   7.588  0.00  0.00    -0.158 NA
ATOM     30  N   UNL     1       1.224   8.770   8.345  0.00  0.00    -0.280 N 
ATOM     31  N   UNL     1       2.712   9.184   5.295  0.00  0.00    -0.281 N 
ATOM     32  C   UNL     1       2.790   8.370   4.181  0.00  0.00    +0.153 A 
ATOM     33  N   UNL     1       1.817   7.601   3.791  0.00  0.00    -0.203 NA
ATOM     34  C   UNL     1       1.948   6.795   2.696  0.00  0.00    +0.214 A 
ATOM     35  N   UNL     1       2.985   6.712   1.927  0.00  0.00    -0.139 NA
ATOM     36  N   UNL     1       3.999   7.500   2.305  0.00  0.00    -0.234 N 
ATOM     37  C   UNL     1       3.986   8.328   3.386  0.00  0.00    +0.105 A 
ATOM     38  C   UNL     1       5.221   8.939   3.485  0.00  0.00    +0.033 A 
ATOM     39  C   UNL     1       6.005   8.461   2.407  0.00  0.00    +0.022 A 
ATOM     40  C   UNL     1       5.220   7.581   1.693  0.00  0.00    +0.113 A 
ATOM     41  H   UNL     1       1.265   8.918   9.348  0.00  0.00    +0.189 HD
ATOM     42  H   UNL     1       3.545   9.700   5.537  0.00  0.00    +0.155 HD
ENDBRANCH  24  34
ENDBRANCH   1  24
TORSDOF 6
