REMARK  Name = L146
REMARK  7 active torsions:
REMARK  status: ('A' for Active; 'I' for Inactive)
REMARK    1  A    between atoms: C_1  and  N_2
REMARK    2  A    between atoms: C_6  and  C_7
REMARK    3  A    between atoms: C_7  and  N_8
REMARK    4  A    between atoms: N_11  and  C_14
REMARK    5  A    between atoms: C_22  and  C_24
REMARK    6  A    between atoms: C_27  and  O_30
REMARK    7  A    between atoms: O_30  and  C_31
REMARK                            x       y       z     vdW  Elec       q    Type
REMARK                         _______ _______ _______ _____ _____    ______ ____
ROOT
ATOM      1  C   UNL     1       4.118  -1.351   0.078  0.00  0.00    +0.073 A 
ATOM      2  C   UNL     1       3.790  -2.418   0.980  0.00  0.00    +0.108 A 
ATOM      3  C   UNL     1       4.354  -3.693   0.891  0.00  0.00    +0.180 A 
ATOM      4  N   UNL     1       5.236  -4.073  -0.050  0.00  0.00    -0.233 NA
ATOM      5  C   UNL     1       5.581  -3.095  -0.896  0.00  0.00    +0.130 A 
ATOM      6  C   UNL     1       5.104  -1.780  -0.871  0.00  0.00    +0.059 A 
ATOM      7 BR   UNL     1       6.018  -0.627  -2.094  0.00  0.00    -0.047 Br
ATOM      8  N   UNL     1       3.931  -4.535   1.876  0.00  0.00    -0.208 NA
ATOM      9  C   UNL     1       3.078  -3.847   2.603  0.00  0.00    +0.141 A 
ATOM     10  N   UNL     1       2.934  -2.587   2.056  0.00  0.00    -0.335 N 
ATOM     11  H   UNL     1       2.284  -1.903   2.402  0.00  0.00    +0.167 HD
ENDROOT
BRANCH   1  15
ATOM     12  N   UNL     1       1.731   2.271   0.102  0.00  0.00    -0.292 NA
ATOM     13  C   UNL     1       2.445   1.916   1.311  0.00  0.00    +0.104 C 
ATOM     14  C   UNL     1       2.998   0.471   1.358  0.00  0.00    +0.120 C 
ATOM     15  N   UNL     1       3.629  -0.010   0.107  0.00  0.00    -0.325 N 
ATOM     16  C   UNL     1       2.974   0.455  -1.151  0.00  0.00    +0.120 C 
ATOM     17  C   UNL     1       2.447   1.906  -1.099  0.00  0.00    +0.104 C 
BRANCH  12  18
ATOM     18  C   UNL     1       0.292   2.435   0.072  0.00  0.00    +0.158 C 
BRANCH  18  24
ATOM     19  C   UNL     1      -2.658   2.558  -0.535  0.00  0.00    +0.150 C 
ATOM     20  N   UNL     1      -1.998   1.409   0.035  0.00  0.00    -0.336 N 
ATOM     21  C   UNL     1      -2.631   0.251   0.400  0.00  0.00    +0.106 A 
ATOM     22  C   UNL     1      -1.630  -0.570   0.843  0.00  0.00    +0.130 A 
ATOM     23  N   UNL     1      -0.405   0.070   0.796  0.00  0.00    -0.239 NA
ATOM     24  C   UNL     1      -0.645   1.273   0.296  0.00  0.00    +0.124 A 
ENDBRANCH  18  24
ENDBRANCH  12  18
ENDBRANCH   1  15
BRANCH   9  25
ATOM     25  C   UNL     1       2.397  -4.369   3.801  0.00  0.00    +0.018 A 
ATOM     26  C   UNL     1       2.646  -5.693   4.208  0.00  0.00    +0.015 A 
ATOM     27  C   UNL     1       2.022  -6.251   5.334  0.00  0.00    +0.046 A 
ATOM     28  C   UNL     1       1.149  -5.487   6.106  0.00  0.00    +0.120 A 
ATOM     29  C   UNL     1       0.886  -4.175   5.717  0.00  0.00    +0.046 A 
ATOM     30  C   UNL     1       1.499  -3.624   4.577  0.00  0.00    +0.015 A 
BRANCH  28  31
ATOM     31  O   UNL     1       0.585  -6.133   7.170  0.00  0.00    -0.495 OA
ATOM     32  C   UNL     1       0.190  -5.312   8.263  0.00  0.00    +0.277 C 
ENDBRANCH  28  31
ENDBRANCH   9  25
TORSDOF 5
