REMARK  Name = L12
REMARK  4 active torsions:
REMARK  status: ('A' for Active; 'I' for Inactive)
REMARK    1  A    between atoms: C_8  and  N_16
REMARK    2  A    between atoms: N_16  and  C_17
REMARK    3  A    between atoms: C_20  and  N_23
REMARK    4  A    between atoms: C_24  and  C_26
REMARK                            x       y       z     vdW  Elec       q    Type
REMARK                         _______ _______ _______ _____ _____    ______ ____
ROOT
ATOM      1  N   UNL     1      -0.856  -3.017  -0.134  0.00  0.00    -0.314 N 
ATOM      2  H   UNL     1      -1.093  -2.439  -0.936  0.00  0.00    +0.152 HD
ENDROOT
BRANCH   1  10
ATOM      3  C   UNL     1       2.414  -1.693  -2.661  0.00  0.00    +0.001 A 
ATOM      4  C   UNL     1       3.427  -0.753  -2.571  0.00  0.00    +0.001 A 
ATOM      5  C   UNL     1       3.574  -0.032  -1.393  0.00  0.00    +0.014 A 
ATOM      6  C   UNL     1       2.689  -0.242  -0.322  0.00  0.00    +0.047 A 
ATOM      7  C   UNL     1       1.633  -1.178  -0.378  0.00  0.00    -0.000 A 
ATOM      8  C   UNL     1       1.544  -1.914  -1.580  0.00  0.00    +0.009 A 
ATOM      9  C   UNL     1       0.722  -1.328   0.799  0.00  0.00    +0.046 A 
ATOM     10  C   UNL     1      -0.404  -2.183   0.927  0.00  0.00    +0.044 A 
ATOM     11  C   UNL     1      -1.155  -2.159   2.121  0.00  0.00    +0.043 A 
ATOM     12  C   UNL     1      -0.774  -1.331   3.157  0.00  0.00    +0.115 A 
ATOM     13  N   UNL     1       0.289  -0.519   3.088  0.00  0.00    -0.237 NA
ATOM     14  C   UNL     1       0.990  -0.531   1.937  0.00  0.00    +0.143 A 
ATOM     15  N   UNL     1       2.053   0.351   1.941  0.00  0.00    -0.306 N 
ATOM     16  C   UNL     1       2.923   0.561   0.890  0.00  0.00    +0.258 A 
ATOM     17  O   UNL     1       3.820   1.371   0.985  0.00  0.00    -0.267 OA
ATOM     18  H   UNL     1       2.186   0.897   2.785  0.00  0.00    +0.170 HD
ENDBRANCH   1  10
BRANCH   1  19
ATOM     19  C   UNL     1      -1.652  -4.184  -0.076  0.00  0.00    +0.031 A 
ATOM     20  C   UNL     1      -2.595  -4.425  -1.079  0.00  0.00    +0.025 A 
ATOM     21  C   UNL     1      -3.386  -5.585  -1.070  0.00  0.00    +0.025 A 
ATOM     22  C   UNL     1      -3.243  -6.544  -0.064  0.00  0.00    +0.034 A 
ATOM     23  C   UNL     1      -2.315  -6.302   0.951  0.00  0.00    +0.025 A 
ATOM     24  C   UNL     1      -1.511  -5.148   0.931  0.00  0.00    +0.025 A 
BRANCH  22  25
ATOM     25  N   UNL     1      -4.022  -7.731   0.002  0.00  0.00    -0.281 N 
ATOM     26  C   UNL     1      -4.756  -8.270  -1.045  0.00  0.00    +0.254 C 
ATOM     27  O   UNL     1      -4.633  -7.939  -2.222  0.00  0.00    -0.270 OA
ATOM     28  H   UNL     1      -3.998  -8.229   0.879  0.00  0.00    +0.155 HD
BRANCH  26  29
ATOM     29  C   UNL     1      -5.873  -9.230  -0.694  0.00  0.00    +0.107 A 
ATOM     30  C   UNL     1      -6.417  -9.152   0.588  0.00  0.00    +0.138 A 
ATOM     31  C   UNL     1      -7.741  -8.751   0.702  0.00  0.00    +0.039 A 
ATOM     32  C   UNL     1      -8.550  -8.624  -0.418  0.00  0.00    +0.006 A 
ATOM     33  C   UNL     1      -8.064  -9.082  -1.633  0.00  0.00    +0.039 A 
ATOM     34  C   UNL     1      -6.738  -9.465  -1.769  0.00  0.00    +0.138 A 
ATOM     35  F   UNL     1      -8.858  -9.074  -2.710  0.00  0.00    -0.205 F 
ATOM     36  F   UNL     1      -8.224  -8.431   1.908  0.00  0.00    -0.205 F 
ENDBRANCH  26  29
ENDBRANCH  22  25
ENDBRANCH   1  19
TORSDOF 4
