REMARK  Name = L187
REMARK  5 active torsions:
REMARK  status: ('A' for Active; 'I' for Inactive)
REMARK    1  A    between atoms: C_4  and  N_7
REMARK    2  A    between atoms: C_8  and  C_10
REMARK    3  A    between atoms: C_12  and  N_16
REMARK    4  A    between atoms: N_23  and  C_24
REMARK    5  A    between atoms: C_28  and  C_30
REMARK                            x       y       z     vdW  Elec       q    Type
REMARK                         _______ _______ _______ _____ _____    ______ ____
ROOT
ATOM      1  N   UNL     1      -8.487  -1.914   0.172  0.00  0.00    -0.284 N 
ATOM      2  C   UNL     1      -9.819  -2.034  -0.217  0.00  0.00    +0.221 A 
ATOM      3  N   UNL     1     -10.654  -2.549   0.695  0.00  0.00    -0.223 NA
ATOM      4  C   UNL     1     -11.960  -2.565   0.378  0.00  0.00    +0.118 A 
ATOM      5  C   UNL     1     -12.460  -2.096  -0.813  0.00  0.00    +0.063 A 
ATOM      6  C   UNL     1     -11.531  -1.639  -1.718  0.00  0.00    +0.128 A 
ATOM      7  N   UNL     1     -10.226  -1.604  -1.415  0.00  0.00    -0.199 NA
ATOM      8  N   UNL     1     -11.959  -1.224  -2.999  0.00  0.00    -0.299 N 
ATOM      9  H   UNL     1      -8.401  -2.237   1.125  0.00  0.00    +0.155 HD
ATOM     10  H   UNL     1     -12.657  -0.493  -2.927  0.00  0.00    +0.154 HD
ENDROOT
BRANCH   1  13
ATOM     11  C   UNL     1      -5.316   0.012   0.129  0.00  0.00    +0.039 A 
ATOM     12  C   UNL     1      -6.372  -0.824   0.529  0.00  0.00    +0.036 A 
ATOM     13  C   UNL     1      -7.470  -1.072  -0.300  0.00  0.00    +0.034 A 
ATOM     14  C   UNL     1      -7.464  -0.475  -1.565  0.00  0.00    +0.023 A 
ATOM     15  C   UNL     1      -6.422   0.365  -1.975  0.00  0.00    +0.003 A 
ATOM     16  C   UNL     1      -5.343   0.616  -1.129  0.00  0.00    +0.013 A 
BRANCH  11  18
ATOM     17  N   UNL     1      -3.453   1.310   1.047  0.00  0.00    -0.282 N 
ATOM     18  C   UNL     1      -4.160   0.119   1.050  0.00  0.00    +0.248 C 
ATOM     19  O   UNL     1      -3.944  -0.840   1.785  0.00  0.00    -0.270 OA
ATOM     20  H   UNL     1      -3.875   2.110   0.593  0.00  0.00    +0.155 HD
BRANCH  17  24
ATOM     21  C   UNL     1      -0.056   2.103   3.432  0.00  0.00    +0.000 A 
ATOM     22  C   UNL     1      -0.426   0.785   3.182  0.00  0.00    +0.002 A 
ATOM     23  C   UNL     1      -1.534   0.514   2.378  0.00  0.00    +0.023 A 
ATOM     24  C   UNL     1      -2.295   1.549   1.825  0.00  0.00    +0.034 A 
ATOM     25  C   UNL     1      -1.893   2.870   2.049  0.00  0.00    +0.023 A 
ATOM     26  C   UNL     1      -0.785   3.145   2.861  0.00  0.00    +0.002 A 
ENDBRANCH  17  24
ENDBRANCH  11  18
ENDBRANCH   1  13
BRANCH   8  27
ATOM     27  C   UNL     1     -11.128  -1.103  -4.136  0.00  0.00    +0.033 A 
ATOM     28  C   UNL     1     -11.326  -0.072  -5.059  0.00  0.00    +0.023 A 
ATOM     29  C   UNL     1     -10.521   0.033  -6.198  0.00  0.00    +0.002 A 
ATOM     30  C   UNL     1      -9.513  -0.902  -6.435  0.00  0.00    +0.012 A 
ATOM     31  C   UNL     1      -9.300  -1.954  -5.536  0.00  0.00    +0.057 A 
ATOM     32  C   UNL     1     -10.117  -2.041  -4.396  0.00  0.00    +0.035 A 
BRANCH  31  33
ATOM     33  C   UNL     1      -8.229  -2.989  -5.758  0.00  0.00    +0.417 C 
ATOM     34  F   UNL     1      -7.515  -2.791  -6.903  0.00  0.00    -0.166 F 
ATOM     35  F   UNL     1      -7.312  -3.024  -4.752  0.00  0.00    -0.166 F 
ATOM     36  F   UNL     1      -8.733  -4.251  -5.852  0.00  0.00    -0.166 F 
ENDBRANCH  31  33
ENDBRANCH   8  27
TORSDOF 5
