REMARK  Name = L108
REMARK  7 active torsions:
REMARK  status: ('A' for Active; 'I' for Inactive)
REMARK    1  A    between atoms: C_1  and  C_2
REMARK    2  A    between atoms: C_4  and  C_7
REMARK    3  A    between atoms: C_7  and  N_8
REMARK    4  A    between atoms: N_11  and  C_14
REMARK    5  A    between atoms: C_22  and  C_24
REMARK    6  A    between atoms: C_27  and  C_30
REMARK    7  A    between atoms: C_30  and  N_31
REMARK                            x       y       z     vdW  Elec       q    Type
REMARK                         _______ _______ _______ _____ _____    ______ ____
ROOT
ATOM      1  C   UNL     1      -1.073  -6.949   0.626  0.00  0.00    +0.073 A 
ATOM      2  C   UNL     1      -0.462  -7.912  -0.201  0.00  0.00    +0.108 A 
ATOM      3  C   UNL     1      -0.309  -9.248   0.136  0.00  0.00    +0.180 A 
ATOM      4  N   UNL     1      -0.699  -9.769   1.318  0.00  0.00    -0.233 NA
ATOM      5  C   UNL     1      -1.281  -8.872   2.135  0.00  0.00    +0.130 A 
ATOM      6  C   UNL     1      -1.497  -7.515   1.857  0.00  0.00    +0.059 A 
ATOM      7 BR   UNL     1      -2.478  -6.579   3.200  0.00  0.00    -0.047 Br
ATOM      8  N   UNL     1       0.284  -9.956  -0.865  0.00  0.00    -0.208 NA
ATOM      9  C   UNL     1       0.521  -9.091  -1.834  0.00  0.00    +0.141 A 
ATOM     10  N   UNL     1       0.160  -7.833  -1.426  0.00  0.00    -0.335 N 
ATOM     11  H   UNL     1       0.319  -6.989  -1.947  0.00  0.00    +0.167 HD
ENDROOT
BRANCH   1  15
ATOM     12  N   UNL     1      -0.748  -2.964  -0.742  0.00  0.00    -0.294 NA
ATOM     13  C   UNL     1      -0.261  -3.345   0.602  0.00  0.00    +0.103 C 
ATOM     14  C   UNL     1      -1.096  -4.506   1.185  0.00  0.00    +0.120 C 
ATOM     15  N   UNL     1      -1.148  -5.632   0.235  0.00  0.00    -0.325 N 
ATOM     16  C   UNL     1      -1.554  -5.236  -1.129  0.00  0.00    +0.120 C 
ATOM     17  C   UNL     1      -0.613  -4.117  -1.640  0.00  0.00    +0.103 C 
BRANCH  12  18
ATOM     18  C   UNL     1      -0.135  -1.733  -1.236  0.00  0.00    +0.143 C 
BRANCH  18  22
ATOM     19  C   UNL     1      -3.182   1.637   1.103  0.00  0.00    +0.089 C 
ATOM     20  C   UNL     1      -2.115   0.806   0.523  0.00  0.00    +0.135 A 
ATOM     21  C   UNL     1      -2.105  -0.333  -0.237  0.00  0.00    +0.072 A 
ATOM     22  C   UNL     1      -0.730  -0.584  -0.478  0.00  0.00    +0.098 A 
ATOM     23  N   UNL     1       0.042   0.333   0.120  0.00  0.00    -0.082 NA
ATOM     24  O   UNL     1      -0.834   1.205   0.750  0.00  0.00    -0.360 OA
ENDBRANCH  18  22
ENDBRANCH  12  18
ENDBRANCH   1  15
BRANCH   9  25
ATOM     25  C   UNL     1       1.094  -9.413  -3.142  0.00  0.00    +0.017 A 
ATOM     26  C   UNL     1       0.878  -8.635  -4.288  0.00  0.00    +0.012 A 
ATOM     27  C   UNL     1       1.382  -9.042  -5.535  0.00  0.00    +0.005 A 
ATOM     28  C   UNL     1       2.107 -10.236  -5.660  0.00  0.00    -0.033 A 
ATOM     29  C   UNL     1       2.341 -10.997  -4.506  0.00  0.00    +0.005 A 
ATOM     30  C   UNL     1       1.838 -10.591  -3.268  0.00  0.00    +0.012 A 
BRANCH  28  31
ATOM     31  C   UNL     1       2.523 -10.776  -7.011  0.00  0.00    +0.119 C 
BRANCH  31  32
ATOM     32  N   UNL     1       3.847 -10.460  -7.534  0.00  0.00    -0.294 NA
ATOM     33  C   UNL     1       5.000 -10.800  -6.696  0.00  0.00    +0.113 C 
ATOM     34  C   UNL     1       5.483  -9.655  -5.791  0.00  0.00    +0.175 C 
ATOM     35  O   UNL     1       5.721  -8.457  -6.542  0.00  0.00    -0.377 OA
ATOM     36  C   UNL     1       4.538  -8.049  -7.239  0.00  0.00    +0.175 C 
ATOM     37  C   UNL     1       4.013  -9.152  -8.168  0.00  0.00    +0.113 C 
ENDBRANCH  31  32
ENDBRANCH  28  31
ENDBRANCH   9  25
TORSDOF 6
