REMARK  Name = L63
REMARK  7 active torsions:
REMARK  status: ('A' for Active; 'I' for Inactive)
REMARK    1  A    between atoms: C_1  and  C_2
REMARK    2  A    between atoms: C_10  and  S_17
REMARK    3  A    between atoms: S_17  and  C_18
REMARK    4  A    between atoms: C_21  and  N_24
REMARK    5  A    between atoms: C_25  and  C_27
REMARK    6  A    between atoms: C_27  and  N_28
REMARK    7  A    between atoms: N_28  and  C_29
REMARK                            x       y       z     vdW  Elec       q    Type
REMARK                         _______ _______ _______ _____ _____    ______ ____
ROOT
ATOM      1  C   UNL     1      -3.230   6.819   7.300  0.00  0.00    +0.065 C 
ATOM      2  C   UNL     1      -2.264   7.886   6.972  0.00  0.00    +0.035 A 
ATOM      3  C   UNL     1      -1.531   8.126   5.835  0.00  0.00    +0.068 A 
ATOM      4  C   UNL     1      -0.717   9.241   6.123  0.00  0.00    +0.146 A 
ATOM      5  N   UNL     1      -0.997   9.731   7.336  0.00  0.00    -0.158 NA
ATOM      6  N   UNL     1      -1.917   8.885   7.834  0.00  0.00    -0.280 N 
ATOM      7  N   UNL     1       0.225   9.793   5.326  0.00  0.00    -0.281 N 
ATOM      8  C   UNL     1       0.962   9.060   4.410  0.00  0.00    +0.153 A 
ATOM      9  N   UNL     1       0.527   7.971   3.844  0.00  0.00    -0.203 NA
ATOM     10  C   UNL     1       1.316   7.280   2.957  0.00  0.00    +0.214 A 
ATOM     11  N   UNL     1       2.501   7.607   2.567  0.00  0.00    -0.139 NA
ATOM     12  N   UNL     1       2.961   8.727   3.129  0.00  0.00    -0.234 N 
ATOM     13  C   UNL     1       2.280   9.484   4.035  0.00  0.00    +0.105 A 
ATOM     14  C   UNL     1       3.092  10.536   4.414  0.00  0.00    +0.033 A 
ATOM     15  C   UNL     1       4.309  10.399   3.700  0.00  0.00    +0.022 A 
ATOM     16  C   UNL     1       4.191   9.280   2.905  0.00  0.00    +0.113 A 
ATOM     17  H   UNL     1      -2.260   9.048   8.775  0.00  0.00    +0.189 HD
ATOM     18  H   UNL     1       0.690  10.592   5.733  0.00  0.00    +0.155 HD
ENDROOT
BRANCH  10  19
ATOM     19  S   UNL     1       0.636   5.823   2.235  0.00  0.00    -0.048 S 
BRANCH  19  20
ATOM     20  C   UNL     1       0.328   4.812   3.666  0.00  0.00    +0.016 A 
ATOM     21  C   UNL     1      -0.948   4.778   4.224  0.00  0.00    +0.017 A 
ATOM     22  C   UNL     1      -1.233   3.940   5.304  0.00  0.00    +0.024 A 
ATOM     23  C   UNL     1      -0.259   3.094   5.834  0.00  0.00    +0.033 A 
ATOM     24  C   UNL     1       1.027   3.131   5.282  0.00  0.00    +0.024 A 
ATOM     25  C   UNL     1       1.315   3.978   4.197  0.00  0.00    +0.017 A 
BRANCH  23  26
ATOM     26  N   UNL     1      -0.520   2.198   6.895  0.00  0.00    -0.284 N 
ATOM     27  C   UNL     1      -1.778   1.830   7.357  0.00  0.00    +0.231 C 
ATOM     28  O   UNL     1      -2.859   2.189   6.889  0.00  0.00    -0.274 OA
ATOM     29  H   UNL     1       0.275   1.690   7.264  0.00  0.00    +0.155 HD
BRANCH  27  30
ATOM     30  C   UNL     1      -1.746   0.836   8.520  0.00  0.00    +0.178 C 
BRANCH  30  31
ATOM     31  N   UNL     1      -2.415  -0.423   8.146  0.00  0.00    -0.305 NA
ATOM     32  H   UNL     1      -3.380  -0.190   7.887  0.00  0.00    +0.123 HD
BRANCH  31  33
ATOM     33  C   UNL     1      -1.766  -1.116   7.026  0.00  0.00    +0.054 C 
ATOM     34  C   UNL     1      -0.361  -1.629   7.165  0.00  0.00    +0.020 C 
ATOM     35  C   UNL     1      -1.511  -2.592   7.152  0.00  0.00    +0.020 C 
ENDBRANCH  31  33
ENDBRANCH  30  31
ENDBRANCH  27  30
ENDBRANCH  23  26
ENDBRANCH  19  20
ENDBRANCH  10  19
TORSDOF 6
