REMARK  Name = L24
REMARK  3 active torsions:
REMARK  status: ('A' for Active; 'I' for Inactive)
REMARK    1  A    between atoms: C_4  and  C_7
REMARK    2  A    between atoms: C_13  and  N_16
REMARK    3  A    between atoms: N_16  and  C_17
REMARK                            x       y       z     vdW  Elec       q    Type
REMARK                         _______ _______ _______ _____ _____    ______ ____
ROOT
ATOM      1  N   UNL     1      -9.057   1.006  -0.451  0.00  0.00    -0.313 N 
ATOM      2  H   UNL     1      -9.389   1.546  -1.243  0.00  0.00    +0.152 HD
ENDROOT
BRANCH   1   3
ATOM      3  C   UNL     1     -10.050   0.566   0.463  0.00  0.00    +0.044 A 
ATOM      4  C   UNL     1     -11.324   0.193   0.029  0.00  0.00    +0.046 A 
ATOM      5  C   UNL     1     -11.945   0.436  -1.281  0.00  0.00    -0.000 A 
ATOM      6  C   UNL     1     -12.530   1.633  -1.703  0.00  0.00    +0.009 A 
ATOM      7  C   UNL     1     -13.214   1.679  -2.931  0.00  0.00    +0.001 A 
ATOM      8  C   UNL     1     -13.258   0.560  -3.771  0.00  0.00    +0.001 A 
ATOM      9  C   UNL     1     -12.746  -0.653  -3.323  0.00  0.00    +0.014 A 
ATOM     10  C   UNL     1     -12.202  -0.704  -2.044  0.00  0.00    +0.047 A 
ATOM     11  C   UNL     1     -12.185  -1.979  -1.286  0.00  0.00    +0.258 A 
ATOM     12  O   UNL     1     -11.928  -3.039  -1.842  0.00  0.00    -0.267 OA
ATOM     13  N   UNL     1     -12.567  -1.851   0.052  0.00  0.00    -0.306 N 
ATOM     14  C   UNL     1     -11.933  -0.809   0.791  0.00  0.00    +0.143 A 
ATOM     15  N   UNL     1     -11.643  -1.093   2.074  0.00  0.00    -0.237 NA
ATOM     16  C   UNL     1     -10.521  -0.531   2.552  0.00  0.00    +0.115 A 
ATOM     17  C   UNL     1      -9.671   0.233   1.772  0.00  0.00    +0.043 A 
ATOM     18  H   UNL     1     -13.569  -1.719   0.144  0.00  0.00    +0.170 HD
ENDBRANCH   1   3
BRANCH   1  25
ATOM     19  C   UNL     1      -2.873   0.440   0.319  0.00  0.00    +0.249 C 
ATOM     20  O   UNL     1      -3.182   1.613   0.525  0.00  0.00    -0.270 OA
ATOM     21  N   UNL     1      -3.726  -0.540  -0.149  0.00  0.00    -0.266 N 
ATOM     22  C   UNL     1      -5.070  -0.241  -0.442  0.00  0.00    +0.125 A 
ATOM     23  N   UNL     1      -5.986  -1.128  -0.024  0.00  0.00    -0.238 NA
ATOM     24  C   UNL     1      -7.289  -0.724  -0.086  0.00  0.00    +0.136 A 
ATOM     25  C   UNL     1      -7.742   0.500  -0.603  0.00  0.00    +0.050 A 
ATOM     26  C   UNL     1      -6.767   1.306  -1.171  0.00  0.00    +0.028 A 
ATOM     27  C   UNL     1      -5.421   0.942  -1.085  0.00  0.00    +0.045 A 
ATOM     28  H   UNL     1      -3.566  -1.489   0.152  0.00  0.00    +0.157 HD
BRANCH  19  32
ATOM     29  C   UNL     1       1.221  -0.410   1.156  0.00  0.00    +0.000 A 
ATOM     30  C   UNL     1       0.481   0.396   2.021  0.00  0.00    +0.001 A 
ATOM     31  C   UNL     1      -0.864   0.630   1.765  0.00  0.00    +0.013 A 
ATOM     32  C   UNL     1      -1.487   0.041   0.649  0.00  0.00    +0.037 A 
ATOM     33  C   UNL     1      -0.749  -0.779  -0.206  0.00  0.00    +0.013 A 
ATOM     34  C   UNL     1       0.607  -0.998   0.047  0.00  0.00    +0.001 A 
ENDBRANCH  19  32
ENDBRANCH   1  25
TORSDOF 3
