REMARK  Name = L148
REMARK  6 active torsions:
REMARK  status: ('A' for Active; 'I' for Inactive)
REMARK    1  A    between atoms: C_1  and  O_2
REMARK    2  A    between atoms: O_2  and  C_3
REMARK    3  A    between atoms: C_6  and  C_9
REMARK    4  A    between atoms: C_15  and  N_18
REMARK    5  A    between atoms: N_21  and  C_24
REMARK    6  A    between atoms: C_24  and  C_25
REMARK                            x       y       z     vdW  Elec       q    Type
REMARK                         _______ _______ _______ _____ _____    ______ ____
ROOT
ATOM      1  C   UNL     1       5.435  -4.269  -2.477  0.00  0.00    +0.141 A 
ATOM      2  N   UNL     1       5.988  -4.234  -3.674  0.00  0.00    -0.208 NA
ATOM      3  C   UNL     1       6.630  -5.432  -3.820  0.00  0.00    +0.180 A 
ATOM      4  N   UNL     1       7.349  -5.783  -4.903  0.00  0.00    -0.233 NA
ATOM      5  C   UNL     1       7.911  -7.003  -4.801  0.00  0.00    +0.130 A 
ATOM      6  C   UNL     1       7.807  -7.881  -3.711  0.00  0.00    +0.059 A 
ATOM      7  C   UNL     1       7.048  -7.529  -2.566  0.00  0.00    +0.073 A 
ATOM      8  C   UNL     1       6.469  -6.249  -2.710  0.00  0.00    +0.108 A 
ATOM      9  N   UNL     1       5.636  -5.508  -1.909  0.00  0.00    -0.335 N 
ATOM     10 BR   UNL     1       8.867  -9.456  -3.870  0.00  0.00    -0.047 Br
ATOM     11  H   UNL     1       5.250  -5.810  -1.032  0.00  0.00    +0.167 HD
ENDROOT
BRANCH   1  15
ATOM     12  C   UNL     1       3.214  -1.147  -0.577  0.00  0.00    +0.120 A 
ATOM     13  C   UNL     1       3.229  -1.267  -1.967  0.00  0.00    +0.046 A 
ATOM     14  C   UNL     1       3.959  -2.287  -2.585  0.00  0.00    +0.015 A 
ATOM     15  C   UNL     1       4.689  -3.203  -1.819  0.00  0.00    +0.018 A 
ATOM     16  C   UNL     1       4.697  -3.054  -0.425  0.00  0.00    +0.015 A 
ATOM     17  C   UNL     1       3.966  -2.033   0.193  0.00  0.00    +0.046 A 
BRANCH  12  19
ATOM     18  C   UNL     1       1.986  -0.273   1.244  0.00  0.00    +0.277 C 
ATOM     19  O   UNL     1       2.476  -0.107  -0.082  0.00  0.00    -0.495 OA
ENDBRANCH  12  19
ENDBRANCH   1  15
BRANCH   7  20
ATOM     20  N   UNL     1       6.872  -8.268  -1.415  0.00  0.00    -0.325 N 
ATOM     21  C   UNL     1       6.729  -9.735  -1.367  0.00  0.00    +0.120 C 
ATOM     22  C   UNL     1       7.794 -10.359  -0.430  0.00  0.00    +0.103 C 
ATOM     23  N   UNL     1       7.834  -9.781   0.938  0.00  0.00    -0.299 NA
ATOM     24  C   UNL     1       8.014  -8.318   0.794  0.00  0.00    +0.103 C 
ATOM     25  C   UNL     1       6.959  -7.621  -0.093  0.00  0.00    +0.120 C 
BRANCH  23  26
ATOM     26  C   UNL     1       6.629 -10.075   1.725  0.00  0.00    +0.088 C 
BRANCH  26  27
ATOM     27  C   UNL     1       6.496 -11.545   1.990  0.00  0.00    +0.003 C 
ATOM     28  C   UNL     1       5.308 -12.058   2.766  0.00  0.00    +0.005 C 
ATOM     29  C   UNL     1       5.425 -12.355   1.298  0.00  0.00    +0.005 C 
ENDBRANCH  26  27
ENDBRANCH  23  26
ENDBRANCH   7  20
TORSDOF 5
