REMARK  Name = L159
REMARK  5 active torsions:
REMARK  status: ('A' for Active; 'I' for Inactive)
REMARK    1  A    between atoms: C_1  and  N_2
REMARK    2  A    between atoms: N_2  and  C_3
REMARK    3  A    between atoms: N_2  and  C_4
REMARK    4  A    between atoms: C_7  and  C_10
REMARK    5  A    between atoms: C_16  and  N_19
REMARK                            x       y       z     vdW  Elec       q    Type
REMARK                         _______ _______ _______ _____ _____    ______ ____
ROOT
ATOM      1  C   UNL     1       5.475  -0.180   4.912  0.00  0.00    +0.141 A 
ATOM      2  N   UNL     1       5.985  -1.249   5.492  0.00  0.00    -0.208 NA
ATOM      3  C   UNL     1       6.569  -0.800   6.640  0.00  0.00    +0.180 A 
ATOM      4  N   UNL     1       7.241  -1.584   7.507  0.00  0.00    -0.233 NA
ATOM      5  C   UNL     1       7.686  -0.932   8.598  0.00  0.00    +0.130 A 
ATOM      6  C   UNL     1       7.509   0.426   8.869  0.00  0.00    +0.059 A 
ATOM      7  C   UNL     1       6.845   1.277   7.947  0.00  0.00    +0.073 A 
ATOM      8  C   UNL     1       6.378   0.567   6.824  0.00  0.00    +0.108 A 
ATOM      9  N   UNL     1       5.704   0.932   5.687  0.00  0.00    -0.335 N 
ATOM     10 BR   UNL     1       8.074   1.006  10.597  0.00  0.00    -0.047 Br
ATOM     11  H   UNL     1       5.402   1.863   5.456  0.00  0.00    +0.167 HD
ENDROOT
BRANCH   7  12
ATOM     12  N   UNL     1       6.633   2.628   8.175  0.00  0.00    -0.325 N 
ATOM     13  C   UNL     1       5.465   3.354   7.654  0.00  0.00    +0.120 C 
ATOM     14  C   UNL     1       5.124   4.527   8.605  0.00  0.00    +0.100 C 
ATOM     15  N   UNL     1       6.261   5.436   8.866  0.00  0.00    -0.313 NA
ATOM     16  C   UNL     1       7.429   4.651   9.322  0.00  0.00    +0.100 C 
ATOM     17  C   UNL     1       7.804   3.514   8.342  0.00  0.00    +0.120 C 
ATOM     18  H   UNL     1       5.997   6.085   9.609  0.00  0.00    +0.122 HD
ENDBRANCH   7  12
BRANCH   1  22
ATOM     19  C   UNL     1       3.421  -0.137   1.103  0.00  0.00    +0.029 A 
ATOM     20  C   UNL     1       3.345  -1.229   1.983  0.00  0.00    +0.024 A 
ATOM     21  C   UNL     1       4.013  -1.241   3.220  0.00  0.00    +0.013 A 
ATOM     22  C   UNL     1       4.763  -0.143   3.636  0.00  0.00    +0.017 A 
ATOM     23  C   UNL     1       4.822   0.967   2.793  0.00  0.00    +0.013 A 
ATOM     24  C   UNL     1       4.165   0.965   1.558  0.00  0.00    +0.024 A 
BRANCH  19  26
ATOM     25  C   UNL     1       2.022  -1.293  -0.584  0.00  0.00    +0.129 C 
ATOM     26  N   UNL     1       2.787  -0.132  -0.139  0.00  0.00    -0.336 N 
ATOM     27  C   UNL     1       3.196   0.827  -1.159  0.00  0.00    +0.129 C 
ENDBRANCH  19  26
ENDBRANCH   1  22
TORSDOF 3
