REMARK  Name = L61
REMARK  6 active torsions:
REMARK  status: ('A' for Active; 'I' for Inactive)
REMARK    1  A    between atoms: C_1  and  C_2
REMARK    2  A    between atoms: C_10  and  S_17
REMARK    3  A    between atoms: S_17  and  C_18
REMARK    4  A    between atoms: C_21  and  N_24
REMARK    5  A    between atoms: C_25  and  C_27
REMARK    6  A    between atoms: C_27  and  N_28
REMARK                            x       y       z     vdW  Elec       q    Type
REMARK                         _______ _______ _______ _____ _____    ______ ____
ROOT
ATOM      1  C   UNL     1       5.948   6.723   5.694  0.00  0.00    +0.065 C 
ATOM      2  C   UNL     1       4.961   7.822   5.696  0.00  0.00    +0.035 A 
ATOM      3  C   UNL     1       3.635   7.851   5.330  0.00  0.00    +0.068 A 
ATOM      4  C   UNL     1       3.224   9.193   5.482  0.00  0.00    +0.146 A 
ATOM      5  N   UNL     1       4.212   9.941   5.985  0.00  0.00    -0.158 NA
ATOM      6  N   UNL     1       5.250   9.094   6.090  0.00  0.00    -0.280 N 
ATOM      7  N   UNL     1       2.017   9.727   5.181  0.00  0.00    -0.281 N 
ATOM      8  C   UNL     1       1.180   9.214   4.206  0.00  0.00    +0.153 A 
ATOM      9  N   UNL     1       1.171   7.963   3.856  0.00  0.00    -0.203 NA
ATOM     10  C   UNL     1       0.363   7.527   2.839  0.00  0.00    +0.214 A 
ATOM     11  N   UNL     1      -0.489   8.238   2.174  0.00  0.00    -0.139 NA
ATOM     12  N   UNL     1      -0.522   9.525   2.544  0.00  0.00    -0.234 N 
ATOM     13  C   UNL     1       0.262  10.072   3.515  0.00  0.00    +0.105 A 
ATOM     14  C   UNL     1      -0.017  11.425   3.585  0.00  0.00    +0.033 A 
ATOM     15  C   UNL     1      -1.003  11.699   2.604  0.00  0.00    +0.022 A 
ATOM     16  C   UNL     1      -1.292  10.503   1.980  0.00  0.00    +0.113 A 
ATOM     17  H   UNL     1       6.135   9.459   6.429  0.00  0.00    +0.189 HD
ATOM     18  H   UNL     1       1.968  10.725   5.327  0.00  0.00    +0.155 HD
ENDROOT
BRANCH  10  19
ATOM     19  S   UNL     1       0.580   5.856   2.315  0.00  0.00    -0.048 S 
BRANCH  19  20
ATOM     20  C   UNL     1       0.203   4.912   3.779  0.00  0.00    +0.016 A 
ATOM     21  C   UNL     1      -1.046   5.005   4.400  0.00  0.00    +0.017 A 
ATOM     22  C   UNL     1      -1.359   4.189   5.496  0.00  0.00    +0.024 A 
ATOM     23  C   UNL     1      -0.456   3.221   5.941  0.00  0.00    +0.033 A 
ATOM     24  C   UNL     1       0.790   3.118   5.318  0.00  0.00    +0.024 A 
ATOM     25  C   UNL     1       1.122   3.968   4.252  0.00  0.00    +0.017 A 
BRANCH  23  26
ATOM     26  N   UNL     1      -0.842   2.381   7.010  0.00  0.00    -0.284 N 
ATOM     27  C   UNL     1      -0.575   1.014   7.037  0.00  0.00    +0.231 C 
ATOM     28  O   UNL     1      -0.041   0.411   6.107  0.00  0.00    -0.274 OA
ATOM     29  H   UNL     1      -1.610   2.704   7.582  0.00  0.00    +0.155 HD
BRANCH  27  30
ATOM     30  C   UNL     1      -1.146   0.287   8.280  0.00  0.00    +0.181 C 
BRANCH  30  31
ATOM     31  N   UNL     1      -0.160  -0.599   8.949  0.00  0.00    -0.290 NA
ATOM     32  C   UNL     1       0.281  -1.740   8.110  0.00  0.00    +0.113 C 
ATOM     33  C   UNL     1      -0.822  -2.776   7.844  0.00  0.00    +0.175 C 
ATOM     34  O   UNL     1      -1.341  -3.305   9.072  0.00  0.00    -0.377 OA
ATOM     35  C   UNL     1      -1.795  -2.270   9.951  0.00  0.00    +0.175 C 
ATOM     36  C   UNL     1      -0.721  -1.189  10.189  0.00  0.00    +0.113 C 
ENDBRANCH  30  31
ENDBRANCH  27  30
ENDBRANCH  23  26
ENDBRANCH  19  20
ENDBRANCH  10  19
TORSDOF 5
