REMARK  Name = L161
REMARK  5 active torsions:
REMARK  status: ('A' for Active; 'I' for Inactive)
REMARK    1  A    between atoms: C_1  and  C_2
REMARK    2  A    between atoms: C_4  and  C_7
REMARK    3  A    between atoms: C_7  and  N_8
REMARK    4  A    between atoms: N_11  and  C_14
REMARK    5  A    between atoms: N_27  and  C_30
REMARK                            x       y       z     vdW  Elec       q    Type
REMARK                         _______ _______ _______ _____ _____    ______ ____
ROOT
ATOM      1  C   UNL     1      -1.008  -7.014   0.458  0.00  0.00    +0.073 A 
ATOM      2  C   UNL     1      -0.523  -8.006  -0.414  0.00  0.00    +0.109 A 
ATOM      3  C   UNL     1      -0.472  -9.365  -0.138  0.00  0.00    +0.181 A 
ATOM      4  N   UNL     1      -0.825  -9.886   1.056  0.00  0.00    -0.233 NA
ATOM      5  C   UNL     1      -1.261  -8.959   1.936  0.00  0.00    +0.130 A 
ATOM      6  C   UNL     1      -1.398  -7.583   1.701  0.00  0.00    +0.059 A 
ATOM      7 BR   UNL     1      -2.230  -6.628   3.130  0.00  0.00    -0.047 Br
ATOM      8  N   UNL     1      -0.043 -10.091  -1.208  0.00  0.00    -0.195 NA
ATOM      9  C   UNL     1       0.257  -9.208  -2.136  0.00  0.00    +0.198 A 
ATOM     10  N   UNL     1       0.049  -7.948  -1.657  0.00  0.00    -0.323 N 
ATOM     11  N   UNL     1       0.637  -9.407  -3.411  0.00  0.00    -0.299 N 
ATOM     12  C   UNL     1       1.453  -8.450  -4.167  0.00  0.00    +0.123 C 
ATOM     13  C   UNL     1       2.767  -9.099  -4.653  0.00  0.00    +0.103 C 
ATOM     14  N   UNL     1       2.607 -10.377  -5.377  0.00  0.00    -0.302 NA
ATOM     15  C   UNL     1       1.821 -11.300  -4.524  0.00  0.00    +0.103 C 
ATOM     16  C   UNL     1       0.476 -10.742  -4.010  0.00  0.00    +0.123 C 
ATOM     17  C   UNL     1       1.980 -10.179  -6.682  0.00  0.00    +0.105 C 
ATOM     18  H   UNL     1       0.208  -7.107  -2.184  0.00  0.00    +0.169 HD
ENDROOT
BRANCH   1  22
ATOM     19  N   UNL     1      -0.548  -3.000  -0.799  0.00  0.00    -0.294 NA
ATOM     20  C   UNL     1      -0.029  -3.439   0.512  0.00  0.00    +0.103 C 
ATOM     21  C   UNL     1      -0.894  -4.588   1.074  0.00  0.00    +0.120 C 
ATOM     22  N   UNL     1      -1.004  -5.685   0.094  0.00  0.00    -0.325 N 
ATOM     23  C   UNL     1      -1.417  -5.226  -1.253  0.00  0.00    +0.120 C 
ATOM     24  C   UNL     1      -0.448  -4.119  -1.742  0.00  0.00    +0.103 C 
BRANCH  19  25
ATOM     25  C   UNL     1       0.033  -1.744  -1.260  0.00  0.00    +0.143 C 
BRANCH  25  29
ATOM     26  C   UNL     1      -2.894   1.547   1.331  0.00  0.00    +0.089 C 
ATOM     27  C   UNL     1      -1.854   0.719   0.700  0.00  0.00    +0.135 A 
ATOM     28  C   UNL     1      -1.882  -0.394  -0.097  0.00  0.00    +0.072 A 
ATOM     29  C   UNL     1      -0.521  -0.637  -0.412  0.00  0.00    +0.098 A 
ATOM     30  N   UNL     1       0.282   0.245   0.198  0.00  0.00    -0.082 NA
ATOM     31  O   UNL     1      -0.562   1.096   0.897  0.00  0.00    -0.360 OA
ENDBRANCH  25  29
ENDBRANCH  19  25
ENDBRANCH   1  22
TORSDOF 3
