REMARK  Name = L132
REMARK  8 active torsions:
REMARK  status: ('A' for Active; 'I' for Inactive)
REMARK    1  A    between atoms: C_1  and  N_2
REMARK    2  A    between atoms: N_2  and  C_3
REMARK    3  A    between atoms: N_2  and  C_4
REMARK    4  A    between atoms: C_7  and  C_10
REMARK    5  A    between atoms: C_16  and  N_19
REMARK    6  A    between atoms: N_22  and  C_25
REMARK    7  A    between atoms: C_25  and  C_26
REMARK    8  A    between atoms: N_28  and  C_29
REMARK                            x       y       z     vdW  Elec       q    Type
REMARK                         _______ _______ _______ _____ _____    ______ ____
ROOT
ATOM      1  C   UNL     1       5.161   2.661  -4.253  0.00  0.00    +0.141 A 
ATOM      2  N   UNL     1       5.649   3.883  -4.321  0.00  0.00    -0.208 NA
ATOM      3  C   UNL     1       6.195   3.990  -5.570  0.00  0.00    +0.180 A 
ATOM      4  N   UNL     1       6.836   5.082  -6.028  0.00  0.00    -0.233 NA
ATOM      5  C   UNL     1       7.324   4.934  -7.275  0.00  0.00    +0.130 A 
ATOM      6  C   UNL     1       7.216   3.792  -8.080  0.00  0.00    +0.059 A 
ATOM      7  C   UNL     1       6.532   2.637  -7.621  0.00  0.00    +0.073 A 
ATOM      8  C   UNL     1       6.030   2.829  -6.314  0.00  0.00    +0.108 A 
ATOM      9  N   UNL     1       5.286   2.040  -5.471  0.00  0.00    -0.335 N 
ATOM     10 BR   UNL     1       8.184   3.899  -9.721  0.00  0.00    -0.047 Br
ATOM     11  H   UNL     1       4.916   1.129  -5.689  0.00  0.00    +0.167 HD
ENDROOT
BRANCH   1  15
ATOM     12  C   UNL     1       3.446   0.823  -0.735  0.00  0.00    +0.029 A 
ATOM     13  C   UNL     1       3.283   2.188  -1.026  0.00  0.00    +0.024 A 
ATOM     14  C   UNL     1       3.838   2.783  -2.169  0.00  0.00    +0.013 A 
ATOM     15  C   UNL     1       4.557   2.022  -3.088  0.00  0.00    +0.017 A 
ATOM     16  C   UNL     1       4.703   0.655  -2.842  0.00  0.00    +0.013 A 
ATOM     17  C   UNL     1       4.155   0.073  -1.689  0.00  0.00    +0.024 A 
BRANCH  12  19
ATOM     18  C   UNL     1       2.236   1.061   1.407  0.00  0.00    +0.129 C 
ATOM     19  N   UNL     1       2.927   0.239   0.420  0.00  0.00    -0.336 N 
ATOM     20  C   UNL     1       3.448  -1.046   0.875  0.00  0.00    +0.129 C 
ENDBRANCH  12  19
ENDBRANCH   1  15
BRANCH   7  21
ATOM     21  N   UNL     1       6.380   1.440  -8.290  0.00  0.00    -0.325 N 
ATOM     22  C   UNL     1       6.131   1.319  -9.735  0.00  0.00    +0.120 C 
ATOM     23  C   UNL     1       7.169   0.346 -10.370  0.00  0.00    +0.104 C 
ATOM     24  N   UNL     1       7.246  -1.005  -9.734  0.00  0.00    -0.291 NA
ATOM     25  C   UNL     1       7.441  -0.796  -8.274  0.00  0.00    +0.104 C 
ATOM     26  C   UNL     1       6.432   0.148  -7.586  0.00  0.00    +0.120 C 
BRANCH  24  27
ATOM     27  C   UNL     1       6.012  -1.760 -10.039  0.00  0.00    +0.180 C 
BRANCH  27  28
ATOM     28  C   UNL     1       5.961  -3.107  -9.329  0.00  0.00    +0.231 C 
ATOM     29  O   UNL     1       5.001  -3.388  -8.615  0.00  0.00    -0.274 OA
ATOM     30  N   UNL     1       7.062  -3.910  -9.563  0.00  0.00    -0.283 N 
ATOM     31  H   UNL     1       7.860  -3.446  -9.989  0.00  0.00    +0.155 HD
BRANCH  30  32
ATOM     32  C   UNL     1       7.219  -5.230  -9.094  0.00  0.00    +0.052 A 
ATOM     33  C   UNL     1       6.189  -5.990  -8.545  0.00  0.00    +0.134 A 
ATOM     34  N   UNL     1       6.331  -7.259  -8.082  0.00  0.00    -0.261 NA
ATOM     35  C   UNL     1       7.559  -7.801  -8.171  0.00  0.00    +0.111 A 
ATOM     36  C   UNL     1       8.649  -7.138  -8.717  0.00  0.00    +0.021 A 
ATOM     37  C   UNL     1       8.473  -5.839  -9.190  0.00  0.00    +0.026 A 
ENDBRANCH  30  32
ENDBRANCH  27  28
ENDBRANCH  24  27
ENDBRANCH   7  21
TORSDOF 6
