REMARK  Name = L62
REMARK  7 active torsions:
REMARK  status: ('A' for Active; 'I' for Inactive)
REMARK    1  A    between atoms: C_1  and  C_2
REMARK    2  A    between atoms: C_10  and  S_17
REMARK    3  A    between atoms: S_17  and  C_18
REMARK    4  A    between atoms: C_21  and  N_24
REMARK    5  A    between atoms: C_25  and  C_27
REMARK    6  A    between atoms: C_27  and  N_28
REMARK    7  A    between atoms: N_28  and  C_29
REMARK                            x       y       z     vdW  Elec       q    Type
REMARK                         _______ _______ _______ _____ _____    ______ ____
ROOT
ATOM      1  S   UNL     1       0.628   5.827   2.223  0.00  0.00    -0.048 S 
ENDROOT
BRANCH   1  11
ATOM      2  C   UNL     1      -3.195   6.847   7.285  0.00  0.00    +0.065 C 
ATOM      3  C   UNL     1      -2.222   7.909   6.959  0.00  0.00    +0.035 A 
ATOM      4  C   UNL     1      -1.486   8.141   5.823  0.00  0.00    +0.068 A 
ATOM      5  C   UNL     1      -0.680   9.268   6.097  0.00  0.00    +0.146 A 
ATOM      6  N   UNL     1      -0.958   9.759   7.310  0.00  0.00    -0.158 NA
ATOM      7  N   UNL     1      -1.872   8.910   7.817  0.00  0.00    -0.280 N 
ATOM      8  N   UNL     1       0.249   9.822   5.289  0.00  0.00    -0.281 N 
ATOM      9  C   UNL     1       0.978   9.084   4.375  0.00  0.00    +0.153 A 
ATOM     10  N   UNL     1       0.536   7.994   3.814  0.00  0.00    -0.203 NA
ATOM     11  C   UNL     1       1.311   7.289   2.934  0.00  0.00    +0.214 A 
ATOM     12  N   UNL     1       2.501   7.607   2.535  0.00  0.00    -0.139 NA
ATOM     13  N   UNL     1       2.974   8.726   3.090  0.00  0.00    -0.234 N 
ATOM     14  C   UNL     1       2.300   9.494   3.993  0.00  0.00    +0.105 A 
ATOM     15  C   UNL     1       3.128  10.536   4.371  0.00  0.00    +0.033 A 
ATOM     16  C   UNL     1       4.344  10.378   3.660  0.00  0.00    +0.022 A 
ATOM     17  C   UNL     1       4.207   9.261   2.865  0.00  0.00    +0.113 A 
ATOM     18  H   UNL     1      -2.212   9.074   8.759  0.00  0.00    +0.189 HD
ATOM     19  H   UNL     1       0.710  10.629   5.685  0.00  0.00    +0.155 HD
ENDBRANCH   1  11
BRANCH   1  20
ATOM     20  C   UNL     1       0.336   4.812   3.655  0.00  0.00    +0.016 A 
ATOM     21  C   UNL     1      -0.933   4.784   4.226  0.00  0.00    +0.017 A 
ATOM     22  C   UNL     1      -1.210   3.954   5.315  0.00  0.00    +0.024 A 
ATOM     23  C   UNL     1      -0.236   3.111   5.850  0.00  0.00    +0.033 A 
ATOM     24  C   UNL     1       1.036   3.115   5.261  0.00  0.00    +0.024 A 
ATOM     25  C   UNL     1       1.319   3.961   4.171  0.00  0.00    +0.017 A 
BRANCH  23  26
ATOM     26  N   UNL     1      -0.489   2.238   6.937  0.00  0.00    -0.284 N 
ATOM     27  C   UNL     1      -1.690   2.112   7.625  0.00  0.00    +0.231 C 
ATOM     28  O   UNL     1      -2.721   2.753   7.425  0.00  0.00    -0.274 OA
ATOM     29  H   UNL     1       0.279   1.644   7.224  0.00  0.00    +0.155 HD
BRANCH  27  30
ATOM     30  C   UNL     1      -1.684   1.024   8.703  0.00  0.00    +0.178 C 
BRANCH  30  31
ATOM     31  N   UNL     1      -2.747   0.032   8.464  0.00  0.00    -0.305 NA
ATOM     32  H   UNL     1      -3.637   0.537   8.430  0.00  0.00    +0.123 HD
BRANCH  31  33
ATOM     33  C   UNL     1      -2.600  -0.716   7.217  0.00  0.00    +0.054 C 
ATOM     34  C   UNL     1      -1.324  -1.548   7.116  0.00  0.00    +0.019 C 
ATOM     35  C   UNL     1      -1.646  -2.563   6.027  0.00  0.00    +0.002 C 
ATOM     36  C   UNL     1      -3.149  -2.817   6.127  0.00  0.00    +0.002 C 
ATOM     37  C   UNL     1      -3.697  -1.777   7.101  0.00  0.00    +0.019 C 
ENDBRANCH  31  33
ENDBRANCH  30  31
ENDBRANCH  27  30
ENDBRANCH  23  26
ENDBRANCH   1  20
TORSDOF 6
