REMARK  Name = L85
REMARK  7 active torsions:
REMARK  status: ('A' for Active; 'I' for Inactive)
REMARK    1  A    between atoms: C_1  and  N_2
REMARK    2  A    between atoms: N_2  and  C_3
REMARK    3  A    between atoms: N_2  and  C_4
REMARK    4  A    between atoms: C_7  and  C_10
REMARK    5  A    between atoms: C_16  and  N_19
REMARK    6  A    between atoms: N_22  and  S_25
REMARK    7  A    between atoms: S_25  and  C_28
REMARK                            x       y       z     vdW  Elec       q    Type
REMARK                         _______ _______ _______ _____ _____    ______ ____
ROOT
ATOM      1  C   UNL     1       5.599  -4.156  -2.659  0.00  0.00    +0.141 A 
ATOM      2  N   UNL     1       6.128  -4.076  -3.861  0.00  0.00    -0.208 NA
ATOM      3  C   UNL     1       6.764  -5.263  -4.067  0.00  0.00    +0.180 A 
ATOM      4  N   UNL     1       7.493  -5.554  -5.163  0.00  0.00    -0.233 NA
ATOM      5  C   UNL     1       8.005  -6.799  -5.151  0.00  0.00    +0.130 A 
ATOM      6  C   UNL     1       7.829  -7.760  -4.146  0.00  0.00    +0.059 A 
ATOM      7  C   UNL     1       7.097  -7.460  -2.964  0.00  0.00    +0.073 A 
ATOM      8  C   UNL     1       6.587  -6.143  -3.007  0.00  0.00    +0.108 A 
ATOM      9  N   UNL     1       5.890  -5.376  -2.107  0.00  0.00    -0.335 N 
ATOM     10 BR   UNL     1       8.543  -9.476  -4.587  0.00  0.00    -0.047 Br
ATOM     11  H   UNL     1       5.604  -5.664  -1.188  0.00  0.00    +0.167 HD
ENDROOT
BRANCH   1  15
ATOM     12  C   UNL     1       3.307  -1.085  -0.654  0.00  0.00    +0.029 A 
ATOM     13  C   UNL     1       3.332  -1.213  -2.051  0.00  0.00    +0.024 A 
ATOM     14  C   UNL     1       4.074  -2.210  -2.700  0.00  0.00    +0.013 A 
ATOM     15  C   UNL     1       4.816  -3.135  -1.968  0.00  0.00    +0.017 A 
ATOM     16  C   UNL     1       4.788  -3.044  -0.574  0.00  0.00    +0.013 A 
ATOM     17  C   UNL     1       4.050  -2.038   0.064  0.00  0.00    +0.024 A 
BRANCH  12  19
ATOM     18  C   UNL     1       1.839   0.904  -0.781  0.00  0.00    +0.129 C 
ATOM     19  N   UNL     1       2.588  -0.082  -0.011  0.00  0.00    -0.336 N 
ATOM     20  C   UNL     1       2.746   0.155   1.418  0.00  0.00    +0.129 C 
ENDBRANCH  12  19
ENDBRANCH   1  15
BRANCH   7  21
ATOM     21  N   UNL     1       6.931  -8.267  -1.853  0.00  0.00    -0.325 N 
ATOM     22  C   UNL     1       7.921  -9.294  -1.470  0.00  0.00    +0.122 C 
ATOM     23  C   UNL     1       8.143  -9.327   0.057  0.00  0.00    +0.128 C 
ATOM     24  N   UNL     1       6.864  -9.405   0.827  0.00  0.00    -0.174 NA
ATOM     25  C   UNL     1       5.964  -8.276   0.413  0.00  0.00    +0.128 C 
ATOM     26  C   UNL     1       5.659  -8.345  -1.099  0.00  0.00    +0.122 C 
BRANCH  24  27
ATOM     27  S   UNL     1       6.097 -10.923   0.904  0.00  0.00    +0.061 S 
ATOM     28  O   UNL     1       4.907 -10.782   1.709  0.00  0.00    -0.153 OA
ATOM     29  O   UNL     1       6.024 -11.466  -0.435  0.00  0.00    -0.153 OA
BRANCH  27  30
ATOM     30  C   UNL     1       7.259 -11.897   1.827  0.00  0.00    +0.105 A 
ATOM     31  C   UNL     1       7.456 -11.596   3.178  0.00  0.00    +0.028 A 
ATOM     32  C   UNL     1       8.375 -12.341   3.915  0.00  0.00    +0.002 A 
ATOM     33  C   UNL     1       9.076 -13.383   3.306  0.00  0.00    +0.000 A 
ATOM     34  C   UNL     1       8.858 -13.689   1.961  0.00  0.00    +0.002 A 
ATOM     35  C   UNL     1       7.946 -12.946   1.217  0.00  0.00    +0.028 A 
ENDBRANCH  27  30
ENDBRANCH  24  27
ENDBRANCH   7  21
TORSDOF 5
