REMARK  Name = L20
REMARK  4 active torsions:
REMARK  status: ('A' for Active; 'I' for Inactive)
REMARK    1  A    between atoms: C_8  and  N_16
REMARK    2  A    between atoms: N_16  and  C_17
REMARK    3  A    between atoms: C_20  and  N_23
REMARK    4  A    between atoms: C_24  and  C_26
REMARK                            x       y       z     vdW  Elec       q    Type
REMARK                         _______ _______ _______ _____ _____    ______ ____
ROOT
ATOM      1  N   UNL     1      -0.957  -2.901  -0.113  0.00  0.00    -0.314 N 
ATOM      2  H   UNL     1      -0.503  -2.735   0.784  0.00  0.00    +0.152 HD
ENDROOT
BRANCH   1  10
ATOM      3  C   UNL     1       3.136  -1.861  -1.007  0.00  0.00    +0.001 A 
ATOM      4  C   UNL     1       3.796  -0.748  -1.504  0.00  0.00    +0.001 A 
ATOM      5  C   UNL     1       3.056   0.358  -1.897  0.00  0.00    +0.014 A 
ATOM      6  C   UNL     1       1.655   0.351  -1.773  0.00  0.00    +0.047 A 
ATOM      7  C   UNL     1       0.947  -0.758  -1.255  0.00  0.00    -0.000 A 
ATOM      8  C   UNL     1       1.737  -1.869  -0.900  0.00  0.00    +0.009 A 
ATOM      9  C   UNL     1      -0.542  -0.668  -1.121  0.00  0.00    +0.046 A 
ATOM     10  C   UNL     1      -1.423  -1.652  -0.619  0.00  0.00    +0.044 A 
ATOM     11  C   UNL     1      -2.796  -1.353  -0.493  0.00  0.00    +0.043 A 
ATOM     12  C   UNL     1      -3.279  -0.144  -0.937  0.00  0.00    +0.115 A 
ATOM     13  N   UNL     1      -2.492   0.799  -1.463  0.00  0.00    -0.237 NA
ATOM     14  C   UNL     1      -1.171   0.522  -1.532  0.00  0.00    +0.143 A 
ATOM     15  N   UNL     1      -0.427   1.567  -2.059  0.00  0.00    -0.306 N 
ATOM     16  C   UNL     1       0.924   1.566  -2.209  0.00  0.00    +0.258 A 
ATOM     17  O   UNL     1       1.512   2.535  -2.679  0.00  0.00    -0.267 OA
ATOM     18  H   UNL     1      -0.941   2.389  -2.338  0.00  0.00    +0.170 HD
ENDBRANCH   1  10
BRANCH   1  19
ATOM     19  C   UNL     1      -1.682  -4.116  -0.079  0.00  0.00    +0.031 A 
ATOM     20  C   UNL     1      -2.614  -4.444  -1.066  0.00  0.00    +0.025 A 
ATOM     21  C   UNL     1      -3.391  -5.595  -0.959  0.00  0.00    +0.025 A 
ATOM     22  C   UNL     1      -3.208  -6.476   0.102  0.00  0.00    +0.034 A 
ATOM     23  C   UNL     1      -2.196  -6.216   1.032  0.00  0.00    +0.025 A 
ATOM     24  C   UNL     1      -1.423  -5.054   0.926  0.00  0.00    +0.025 A 
BRANCH  22  25
ATOM     25  N   UNL     1      -4.019  -7.610   0.292  0.00  0.00    -0.281 N 
ATOM     26  C   UNL     1      -4.919  -8.132  -0.623  0.00  0.00    +0.251 C 
ATOM     27  O   UNL     1      -5.117  -7.734  -1.766  0.00  0.00    -0.270 OA
ATOM     28  H   UNL     1      -3.898  -8.104   1.171  0.00  0.00    +0.155 HD
BRANCH  26  29
ATOM     29  C   UNL     1      -5.712  -9.295  -0.165  0.00  0.00    +0.072 A 
ATOM     30  C   UNL     1      -6.965  -9.527  -0.751  0.00  0.00    +0.016 A 
ATOM     31  C   UNL     1      -7.726 -10.633  -0.359  0.00  0.00    +0.001 A 
ATOM     32  C   UNL     1      -7.230 -11.510   0.606  0.00  0.00    +0.003 A 
ATOM     33  C   UNL     1      -5.983 -11.286   1.187  0.00  0.00    +0.039 A 
ATOM     34  C   UNL     1      -5.234 -10.176   0.801  0.00  0.00    +0.135 A 
ATOM     35  F   UNL     1      -4.040  -9.981   1.381  0.00  0.00    -0.205 F 
ENDBRANCH  26  29
ENDBRANCH  22  25
ENDBRANCH   1  19
TORSDOF 4
