REMARK  Name = L71
REMARK  7 active torsions:
REMARK  status: ('A' for Active; 'I' for Inactive)
REMARK    1  A    between atoms: C_1  and  C_2
REMARK    2  A    between atoms: C_10  and  S_17
REMARK    3  A    between atoms: S_17  and  C_18
REMARK    4  A    between atoms: C_21  and  N_24
REMARK    5  A    between atoms: C_25  and  C_27
REMARK    6  A    between atoms: C_27  and  N_28
REMARK    7  A    between atoms: C_31  and  C_33
REMARK                            x       y       z     vdW  Elec       q    Type
REMARK                         _______ _______ _______ _____ _____    ______ ____
ROOT
ATOM      1  C   UNL     1       0.302   4.785   3.700  0.00  0.00    +0.016 A 
ATOM      2  C   UNL     1      -0.967   4.742   4.289  0.00  0.00    +0.017 A 
ATOM      3  C   UNL     1      -1.235   3.877   5.357  0.00  0.00    +0.024 A 
ATOM      4  C   UNL     1      -0.235   3.042   5.851  0.00  0.00    +0.033 A 
ATOM      5  C   UNL     1       1.041   3.081   5.282  0.00  0.00    +0.024 A 
ATOM      6  C   UNL     1       1.302   3.938   4.198  0.00  0.00    +0.017 A 
ENDROOT
BRANCH   4   7
ATOM      7  N   UNL     1      -0.526   2.214   6.951  0.00  0.00    -0.284 N 
ATOM      8  C   UNL     1      -0.993   0.911   6.773  0.00  0.00    +0.231 C 
ATOM      9  O   UNL     1      -1.306   0.441   5.682  0.00  0.00    -0.274 OA
ATOM     10  H   UNL     1      -0.062   2.439   7.820  0.00  0.00    +0.155 HD
BRANCH   8  11
ATOM     11  C   UNL     1      -1.120   0.113   8.092  0.00  0.00    +0.180 C 
BRANCH  11  12
ATOM     12  N   UNL     1      -0.361  -1.149   8.061  0.00  0.00    -0.293 NA
ATOM     13  C   UNL     1      -0.537  -1.964   9.265  0.00  0.00    +0.085 C 
ATOM     14  C   UNL     1       0.720  -1.738  10.083  0.00  0.00    +0.029 C 
ATOM     15  C   UNL     1       1.812  -1.668   9.023  0.00  0.00    +0.090 C 
ATOM     16  C   UNL     1       1.090  -0.987   7.849  0.00  0.00    +0.097 C 
BRANCH  15  17
ATOM     17  C   UNL     1       2.407  -3.035   8.653  0.00  0.00    +0.220 C 
ATOM     18  O   UNL     1       2.230  -3.527   7.537  0.00  0.00    -0.275 OA
ATOM     19  N   UNL     1       3.195  -3.682   9.595  0.00  0.00    -0.297 N 
ATOM     20  C   UNL     1       3.498  -3.241  10.958  0.00  0.00    +0.136 C 
ATOM     21  C   UNL     1       5.007  -3.286  11.218  0.00  0.00    +0.179 C 
ATOM     22  O   UNL     1       5.537  -4.594  10.959  0.00  0.00    -0.377 OA
ATOM     23  C   UNL     1       5.306  -4.977   9.593  0.00  0.00    +0.179 C 
ATOM     24  C   UNL     1       3.807  -4.978   9.259  0.00  0.00    +0.136 C 
ENDBRANCH  15  17
ENDBRANCH  11  12
ENDBRANCH   8  11
ENDBRANCH   4   7
BRANCH   1  25
ATOM     25  S   UNL     1       0.558   5.807   2.256  0.00  0.00    -0.048 S 
BRANCH  25  35
ATOM     26  C   UNL     1      -0.878   7.432   8.231  0.00  0.00    +0.065 C 
ATOM     27  C   UNL     1       0.299   8.086   7.633  0.00  0.00    +0.035 A 
ATOM     28  C   UNL     1       0.710   8.178   6.326  0.00  0.00    +0.068 A 
ATOM     29  C   UNL     1       1.938   8.877   6.349  0.00  0.00    +0.146 A 
ATOM     30  N   UNL     1       2.240   9.258   7.598  0.00  0.00    -0.158 NA
ATOM     31  N   UNL     1       1.247   8.760   8.353  0.00  0.00    -0.280 N 
ATOM     32  N   UNL     1       2.741   9.153   5.301  0.00  0.00    -0.281 N 
ATOM     33  C   UNL     1       2.812   8.345   4.183  0.00  0.00    +0.153 A 
ATOM     34  N   UNL     1       1.833   7.584   3.794  0.00  0.00    -0.203 NA
ATOM     35  C   UNL     1       1.964   6.779   2.686  0.00  0.00    +0.214 A 
ATOM     36  N   UNL     1       3.002   6.688   1.923  0.00  0.00    -0.139 NA
ATOM     37  N   UNL     1       4.020   7.465   2.304  0.00  0.00    -0.234 N 
ATOM     38  C   UNL     1       4.011   8.287   3.389  0.00  0.00    +0.105 A 
ATOM     39  C   UNL     1       5.250   8.890   3.492  0.00  0.00    +0.033 A 
ATOM     40  C   UNL     1       6.036   8.401   2.418  0.00  0.00    +0.022 A 
ATOM     41  C   UNL     1       5.242   7.538   1.694  0.00  0.00    +0.113 A 
ATOM     42  H   UNL     1       1.287   8.907   9.357  0.00  0.00    +0.189 HD
ATOM     43  H   UNL     1       3.579   9.664   5.538  0.00  0.00    +0.155 HD
ENDBRANCH  25  35
ENDBRANCH   1  25
TORSDOF 6
