REMARK  Name = L52
REMARK  10 active torsions:
REMARK  status: ('A' for Active; 'I' for Inactive)
REMARK    1  A    between atoms: C_1  and  C_2
REMARK    2  A    between atoms: C_2  and  C_3
REMARK    3  A    between atoms: N_5  and  C_6
REMARK    4  A    between atoms: C_9  and  S_12
REMARK    5  A    between atoms: S_12  and  C_13
REMARK    6  A    between atoms: C_15  and  C_26
REMARK    7  A    between atoms: C_23  and  C_25
REMARK    8  A    between atoms: C_26  and  C_27
REMARK    9  A    between atoms: C_26  and  C_28
REMARK   10  A    between atoms: C_26  and  C_29
REMARK                            x       y       z     vdW  Elec       q    Type
REMARK                         _______ _______ _______ _____ _____    ______ ____
ROOT
ATOM      1  C   UNL     1       5.807   4.889   6.808  0.00  0.00    +0.195 A 
ATOM      2  N   UNL     1       5.260   6.063   7.166  0.00  0.00    -0.226 NA
ATOM      3  C   UNL     1       4.464   6.074   8.248  0.00  0.00    +0.053 A 
ATOM      4  C   UNL     1       4.238   4.917   8.956  0.00  0.00    +0.067 A 
ATOM      5  C   UNL     1       4.849   3.752   8.552  0.00  0.00    +0.129 A 
ATOM      6  N   UNL     1       5.624   3.716   7.450  0.00  0.00    -0.206 NA
ATOM      7  N   UNL     1       4.669   2.551   9.274  0.00  0.00    -0.283 N 
ATOM      8  C   UNL     1       4.254   2.400  10.555  0.00  0.00    +0.146 A 
ATOM      9  N   UNL     1       4.079   3.380  11.446  0.00  0.00    -0.158 NA
ATOM     10  N   UNL     1       3.647   2.776  12.552  0.00  0.00    -0.280 N 
ATOM     11  C   UNL     1       3.525   1.426  12.423  0.00  0.00    +0.035 A 
ATOM     12  C   UNL     1       3.945   1.145  11.137  0.00  0.00    +0.068 A 
ATOM     13  C   UNL     1       3.021   0.580  13.524  0.00  0.00    +0.065 C 
ATOM     14  H   UNL     1       5.091   1.779   8.772  0.00  0.00    +0.155 HD
ATOM     15  H   UNL     1       3.440   3.356  13.360  0.00  0.00    +0.189 HD
ENDROOT
BRANCH   3  16
ATOM     16  C   UNL     1       3.792   7.383   8.668  0.00  0.00    +0.005 C 
ATOM     17  C   UNL     1       4.199   8.534   7.725  0.00  0.00    +0.017 C 
ATOM     18  C   UNL     1       2.258   7.222   8.612  0.00  0.00    +0.017 C 
ATOM     19  C   UNL     1       4.198   7.777  10.102  0.00  0.00    +0.017 C 
ENDBRANCH   3  16
BRANCH   1  20
ATOM     20  S   UNL     1       6.850   4.858   5.358  0.00  0.00    -0.050 S 
BRANCH  20  24
ATOM     21  C   UNL     1       7.066   9.264   3.997  0.00  0.00    +0.033 A 
ATOM     22  C   UNL     1       7.941   8.762   4.967  0.00  0.00    +0.024 A 
ATOM     23  C   UNL     1       7.866   7.429   5.389  0.00  0.00    +0.017 A 
ATOM     24  C   UNL     1       6.903   6.574   4.862  0.00  0.00    +0.016 A 
ATOM     25  C   UNL     1       6.014   7.072   3.901  0.00  0.00    +0.017 A 
ATOM     26  C   UNL     1       6.083   8.412   3.483  0.00  0.00    +0.024 A 
BRANCH  21  29
ATOM     27  C   UNL     1       8.245  11.420   3.665  0.00  0.00    +0.217 C 
ATOM     28  O   UNL     1       9.325  11.093   4.155  0.00  0.00    -0.275 OA
ATOM     29  N   UNL     1       7.139  10.596   3.521  0.00  0.00    -0.286 N 
ATOM     30  H   UNL     1       6.385  10.915   2.930  0.00  0.00    +0.155 HD
BRANCH  27  32
ATOM     31  C   UNL     1       9.310  13.652   3.277  0.00  0.00    +0.013 C 
ATOM     32  C   UNL     1       8.037  12.824   3.122  0.00  0.00    +0.093 C 
ENDBRANCH  27  32
ENDBRANCH  21  29
ENDBRANCH  20  24
ENDBRANCH   1  20
TORSDOF 5
