REMARK  Name = L177
REMARK  5 active torsions:
REMARK  status: ('A' for Active; 'I' for Inactive)
REMARK    1  A    between atoms: C_3  and  C_25
REMARK    2  A    between atoms: C_5  and  N_7
REMARK    3  A    between atoms: N_14  and  C_15
REMARK    4  A    between atoms: C_19  and  C_21
REMARK    5  A    between atoms: C_25  and  C_26
REMARK                            x       y       z     vdW  Elec       q    Type
REMARK                         _______ _______ _______ _____ _____    ______ ____
ROOT
ATOM      1  N   UNL     1      -1.515  -2.279  -0.008  0.00  0.00    -0.284 N 
ATOM      2  C   UNL     1      -1.180  -3.629   0.104  0.00  0.00    +0.221 A 
ATOM      3  N   UNL     1      -1.560  -4.414  -0.913  0.00  0.00    -0.223 NA
ATOM      4  C   UNL     1      -1.162  -5.699  -0.869  0.00  0.00    +0.118 A 
ATOM      5  C   UNL     1      -0.410  -6.230   0.150  0.00  0.00    +0.063 A 
ATOM      6  C   UNL     1      -0.107  -5.372   1.182  0.00  0.00    +0.128 A 
ATOM      7  N   UNL     1      -0.484  -4.086   1.150  0.00  0.00    -0.199 NA
ATOM      8  N   UNL     1       0.598  -5.864   2.306  0.00  0.00    -0.299 N 
ATOM      9  H   UNL     1      -1.979  -2.142  -0.894  0.00  0.00    +0.155 HD
ATOM     10  H   UNL     1       1.484  -6.265   2.022  0.00  0.00    +0.154 HD
ENDROOT
BRANCH   1  15
ATOM     11  C   UNL     1       0.456  -0.007   2.222  0.00  0.00    +0.002 A 
ATOM     12  C   UNL     1       0.224   1.219   1.606  0.00  0.00    +0.004 A 
ATOM     13  C   UNL     1      -0.599   1.299   0.476  0.00  0.00    -0.037 A 
ATOM     14  C   UNL     1      -1.183   0.118  -0.018  0.00  0.00    +0.027 A 
ATOM     15  C   UNL     1      -0.929  -1.137   0.566  0.00  0.00    +0.034 A 
ATOM     16  C   UNL     1      -0.127  -1.169   1.711  0.00  0.00    +0.023 A 
BRANCH  13  17
ATOM     17  C   UNL     1      -0.921   2.658  -0.105  0.00  0.00    +0.130 C 
BRANCH  17  18
ATOM     18  C   UNL     1      -1.151   2.693  -1.602  0.00  0.00    +0.215 C 
ATOM     19  O   UNL     1      -2.248   2.889  -2.113  0.00  0.00    -0.276 OA
ATOM     20  N   UNL     1      -0.042   2.526  -2.380  0.00  0.00    -0.329 N 
ATOM     21  H   UNL     1       0.854   2.256  -2.000  0.00  0.00    +0.145 HD
ATOM     22  H   UNL     1      -0.172   2.512  -3.384  0.00  0.00    +0.145 HD
ENDBRANCH  17  18
ENDBRANCH  13  17
ENDBRANCH   1  15
BRANCH   8  23
ATOM     23  C   UNL     1       0.652  -5.224   3.566  0.00  0.00    +0.033 A 
ATOM     24  C   UNL     1       1.828  -5.231   4.322  0.00  0.00    +0.023 A 
ATOM     25  C   UNL     1       1.877  -4.599   5.569  0.00  0.00    +0.002 A 
ATOM     26  C   UNL     1       0.743  -3.967   6.084  0.00  0.00    +0.012 A 
ATOM     27  C   UNL     1      -0.452  -3.964   5.356  0.00  0.00    +0.057 A 
ATOM     28  C   UNL     1      -0.483  -4.603   4.107  0.00  0.00    +0.035 A 
BRANCH  27  29
ATOM     29  C   UNL     1      -1.700  -3.297   5.876  0.00  0.00    +0.417 C 
ATOM     30  F   UNL     1      -1.536  -2.723   7.100  0.00  0.00    -0.166 F 
ATOM     31  F   UNL     1      -2.146  -2.305   5.058  0.00  0.00    -0.166 F 
ATOM     32  F   UNL     1      -2.739  -4.168   6.011  0.00  0.00    -0.166 F 
ENDBRANCH  27  29
ENDBRANCH   8  23
TORSDOF 5
