REMARK  Name = L29
REMARK  5 active torsions:
REMARK  status: ('A' for Active; 'I' for Inactive)
REMARK    1  A    between atoms: C_8  and  N_16
REMARK    2  A    between atoms: N_16  and  C_17
REMARK    3  A    between atoms: C_20  and  N_23
REMARK    4  A    between atoms: C_24  and  C_26
REMARK    5  A    between atoms: C_28  and  C_33
REMARK                            x       y       z     vdW  Elec       q    Type
REMARK                         _______ _______ _______ _____ _____    ______ ____
ROOT
ATOM      1  C   UNL     1      -1.692  -4.094  -0.046  0.00  0.00    +0.031 A 
ATOM      2  C   UNL     1      -2.614  -4.418  -1.043  0.00  0.00    +0.025 A 
ATOM      3  C   UNL     1      -3.388  -5.574  -0.954  0.00  0.00    +0.025 A 
ATOM      4  C   UNL     1      -3.215  -6.472   0.100  0.00  0.00    +0.034 A 
ATOM      5  C   UNL     1      -2.219  -6.208   1.043  0.00  0.00    +0.025 A 
ATOM      6  C   UNL     1      -1.450  -5.038   0.958  0.00  0.00    +0.025 A 
ENDROOT
BRANCH   4   7
ATOM      7  N   UNL     1      -4.016  -7.625   0.265  0.00  0.00    -0.282 N 
ATOM      8  C   UNL     1      -4.883  -8.126  -0.686  0.00  0.00    +0.248 C 
ATOM      9  O   UNL     1      -5.017  -7.726  -1.838  0.00  0.00    -0.270 OA
ATOM     10  H   UNL     1      -3.875  -8.155   1.115  0.00  0.00    +0.155 HD
BRANCH   8  11
ATOM     11  C   UNL     1      -5.703  -9.299  -0.299  0.00  0.00    +0.040 A 
ATOM     12  C   UNL     1      -6.017 -10.212  -1.318  0.00  0.00    +0.025 A 
ATOM     13  C   UNL     1      -6.875 -11.293  -1.083  0.00  0.00    +0.058 A 
ATOM     14  C   UNL     1      -7.414 -11.447   0.201  0.00  0.00    +0.050 A 
ATOM     15  C   UNL     1      -7.093 -10.537   1.207  0.00  0.00    +0.125 A 
ATOM     16  C   UNL     1      -6.243  -9.460   0.975  0.00  0.00    +0.051 A 
ATOM     17  F   UNL     1      -7.638 -10.688   2.422  0.00  0.00    -0.205 F 
BRANCH  13  18
ATOM     18  C   UNL     1      -7.226 -12.248  -2.195  0.00  0.00    +0.418 C 
ATOM     19  F   UNL     1      -6.628 -11.946  -3.380  0.00  0.00    -0.166 F 
ATOM     20  F   UNL     1      -6.862 -13.528  -1.908  0.00  0.00    -0.166 F 
ATOM     21  F   UNL     1      -8.562 -12.282  -2.448  0.00  0.00    -0.166 F 
ENDBRANCH  13  18
ENDBRANCH   8  11
ENDBRANCH   4   7
BRANCH   1  22
ATOM     22  N   UNL     1      -0.962  -2.882  -0.079  0.00  0.00    -0.314 N 
ATOM     23  H   UNL     1      -0.493  -2.716   0.811  0.00  0.00    +0.152 HD
BRANCH  22  31
ATOM     24  C   UNL     1       3.129  -1.886  -1.007  0.00  0.00    +0.001 A 
ATOM     25  C   UNL     1       3.803  -0.774  -1.491  0.00  0.00    +0.001 A 
ATOM     26  C   UNL     1       3.076   0.345  -1.870  0.00  0.00    +0.014 A 
ATOM     27  C   UNL     1       1.675   0.354  -1.742  0.00  0.00    +0.047 A 
ATOM     28  C   UNL     1       0.955  -0.752  -1.236  0.00  0.00    -0.000 A 
ATOM     29  C   UNL     1       1.730  -1.877  -0.896  0.00  0.00    +0.009 A 
ATOM     30  C   UNL     1      -0.530  -0.651  -1.097  0.00  0.00    +0.046 A 
ATOM     31  C   UNL     1      -1.418  -1.630  -0.591  0.00  0.00    +0.044 A 
ATOM     32  C   UNL     1      -2.789  -1.322  -0.471  0.00  0.00    +0.043 A 
ATOM     33  C   UNL     1      -3.263  -0.107  -0.914  0.00  0.00    +0.115 A 
ATOM     34  N   UNL     1      -2.467   0.833  -1.437  0.00  0.00    -0.237 NA
ATOM     35  C   UNL     1      -1.149   0.548  -1.506  0.00  0.00    +0.143 A 
ATOM     36  N   UNL     1      -0.393   1.589  -2.021  0.00  0.00    -0.306 N 
ATOM     37  C   UNL     1       0.960   1.581  -2.165  0.00  0.00    +0.258 A 
ATOM     38  O   UNL     1       1.559   2.549  -2.622  0.00  0.00    -0.267 OA
ATOM     39  H   UNL     1      -0.897   2.418  -2.298  0.00  0.00    +0.170 HD
ENDBRANCH  22  31
ENDBRANCH   1  22
TORSDOF 5
