REMARK  Name = L60
REMARK  8 active torsions:
REMARK  status: ('A' for Active; 'I' for Inactive)
REMARK    1  A    between atoms: C_1  and  C_2
REMARK    2  A    between atoms: C_10  and  S_17
REMARK    3  A    between atoms: S_17  and  C_18
REMARK    4  A    between atoms: C_21  and  N_24
REMARK    5  A    between atoms: C_25  and  C_27
REMARK    6  A    between atoms: C_27  and  N_28
REMARK    7  A    between atoms: N_28  and  C_29
REMARK    8  A    between atoms: N_28  and  C_30
REMARK                            x       y       z     vdW  Elec       q    Type
REMARK                         _______ _______ _______ _____ _____    ______ ____
ROOT
ATOM      1  C   UNL     1       5.129   3.075   5.757  0.00  0.00    +0.065 C 
ATOM      2  C   UNL     1       5.243   2.970   4.289  0.00  0.00    +0.035 A 
ATOM      3  C   UNL     1       4.618   3.663   3.280  0.00  0.00    +0.068 A 
ATOM      4  C   UNL     1       5.060   3.079   2.073  0.00  0.00    +0.146 A 
ATOM      5  N   UNL     1       5.981   2.139   2.312  0.00  0.00    -0.158 NA
ATOM      6  N   UNL     1       6.056   2.077   3.654  0.00  0.00    -0.280 N 
ATOM      7  N   UNL     1       4.661   3.387   0.819  0.00  0.00    -0.281 N 
ATOM      8  C   UNL     1       3.395   3.860   0.519  0.00  0.00    +0.153 A 
ATOM      9  N   UNL     1       2.650   4.508   1.365  0.00  0.00    -0.203 NA
ATOM     10  C   UNL     1       1.397   4.940   1.010  0.00  0.00    +0.214 A 
ATOM     11  N   UNL     1       0.831   4.791  -0.143  0.00  0.00    -0.139 NA
ATOM     12  N   UNL     1       1.580   4.130  -1.026  0.00  0.00    -0.234 N 
ATOM     13  C   UNL     1       2.830   3.645  -0.785  0.00  0.00    +0.105 A 
ATOM     14  C   UNL     1       3.269   2.994  -1.922  0.00  0.00    +0.033 A 
ATOM     15  C   UNL     1       2.235   3.101  -2.887  0.00  0.00    +0.022 A 
ATOM     16  C   UNL     1       1.214   3.821  -2.306  0.00  0.00    +0.113 A 
ATOM     17  H   UNL     1       6.682   1.396   4.070  0.00  0.00    +0.189 HD
ATOM     18  H   UNL     1       5.117   2.846   0.098  0.00  0.00    +0.155 HD
ENDROOT
BRANCH  10  19
ATOM     19  S   UNL     1       0.469   5.832   2.215  0.00  0.00    -0.048 S 
BRANCH  19  20
ATOM     20  C   UNL     1       0.354   4.653   3.543  0.00  0.00    +0.016 A 
ATOM     21  C   UNL     1       1.242   4.731   4.614  0.00  0.00    +0.017 A 
ATOM     22  C   UNL     1       1.134   3.855   5.699  0.00  0.00    +0.024 A 
ATOM     23  C   UNL     1       0.129   2.889   5.750  0.00  0.00    +0.033 A 
ATOM     24  C   UNL     1      -0.776   2.820   4.682  0.00  0.00    +0.024 A 
ATOM     25  C   UNL     1      -0.666   3.699   3.590  0.00  0.00    +0.017 A 
BRANCH  23  26
ATOM     26  N   UNL     1      -0.018   1.983   6.825  0.00  0.00    -0.284 N 
ATOM     27  C   UNL     1       0.758   1.927   7.975  0.00  0.00    +0.231 C 
ATOM     28  O   UNL     1       1.682   2.682   8.274  0.00  0.00    -0.274 OA
ATOM     29  H   UNL     1      -0.720   1.254   6.737  0.00  0.00    +0.155 HD
BRANCH  27  30
ATOM     30  C   UNL     1       0.355   0.805   8.938  0.00  0.00    +0.180 C 
BRANCH  30  31
ATOM     31  N   UNL     1       0.399  -0.528   8.291  0.00  0.00    -0.300 NA
ATOM     32  C   UNL     1       1.760  -0.837   7.829  0.00  0.00    +0.105 C 
ATOM     33  C   UNL     1      -0.007  -1.545   9.273  0.00  0.00    +0.105 C 
ENDBRANCH  30  31
ENDBRANCH  27  30
ENDBRANCH  23  26
ENDBRANCH  19  20
ENDBRANCH  10  19
TORSDOF 5
