REMARK  Name = L43
REMARK  5 active torsions:
REMARK  status: ('A' for Active; 'I' for Inactive)
REMARK    1  A    between atoms: C_1  and  C_2
REMARK    2  A    between atoms: N_4  and  C_5
REMARK    3  A    between atoms: C_8  and  S_11
REMARK    4  A    between atoms: S_11  and  C_12
REMARK    5  A    between atoms: N_22  and  C_23
REMARK                            x       y       z     vdW  Elec       q    Type
REMARK                         _______ _______ _______ _____ _____    ______ ____
ROOT
ATOM      1  C   UNL     1      10.083  -0.844   0.239  0.00  0.00    +0.195 A 
ATOM      2  N   UNL     1      11.264  -0.598   0.828  0.00  0.00    -0.221 NA
ATOM      3  C   UNL     1      11.739  -1.534   1.657  0.00  0.00    +0.077 A 
ATOM      4  C   UNL     1      12.971  -1.345   2.277  0.00  0.00    +0.028 A 
ATOM      5  C   UNL     1      13.520  -2.295   3.145  0.00  0.00    +0.002 A 
ATOM      6  C   UNL     1      12.827  -3.467   3.416  0.00  0.00    +0.001 A 
ATOM      7  C   UNL     1      11.612  -3.699   2.779  0.00  0.00    +0.013 A 
ATOM      8  C   UNL     1      11.073  -2.743   1.884  0.00  0.00    +0.041 A 
ATOM      9  C   UNL     1       9.884  -2.917   1.164  0.00  0.00    +0.136 A 
ATOM     10  N   UNL     1       9.356  -1.952   0.406  0.00  0.00    -0.206 NA
ATOM     11  N   UNL     1       9.398  -4.244   0.952  0.00  0.00    -0.284 N 
ATOM     12  H   UNL     1       9.989  -4.582   0.188  0.00  0.00    +0.155 HD
ENDROOT
BRANCH  11  13
ATOM     13  C   UNL     1       8.078  -4.483   0.749  0.00  0.00    +0.119 A 
ATOM     14  C   UNL     1       7.390  -5.073  -0.285  0.00  0.00    +0.064 A 
ATOM     15  C   UNL     1       6.051  -5.103   0.154  0.00  0.00    +0.136 A 
ATOM     16  N   UNL     1       5.899  -4.588   1.378  0.00  0.00    -0.181 NA
ATOM     17  N   UNL     1       7.142  -4.187   1.702  0.00  0.00    -0.264 N 
ATOM     18  H   UNL     1       7.301  -3.756   2.603  0.00  0.00    +0.190 HD
ENDBRANCH  11  13
BRANCH   1  19
ATOM     19  S   UNL     1       9.604   0.195  -1.127  0.00  0.00    -0.050 S 
BRANCH  19  23
ATOM     20  C   UNL     1       9.609  -3.075  -4.385  0.00  0.00    +0.033 A 
ATOM     21  C   UNL     1       8.418  -2.449  -4.007  0.00  0.00    +0.024 A 
ATOM     22  C   UNL     1       8.418  -1.446  -3.026  0.00  0.00    +0.017 A 
ATOM     23  C   UNL     1       9.609  -1.052  -2.415  0.00  0.00    +0.016 A 
ATOM     24  C   UNL     1      10.801  -1.676  -2.797  0.00  0.00    +0.017 A 
ATOM     25  C   UNL     1      10.799  -2.686  -3.768  0.00  0.00    +0.024 A 
BRANCH  20  29
ATOM     26  C   UNL     1       9.051  -5.732  -7.012  0.00  0.00    +0.109 C 
ATOM     27  C   UNL     1       8.655  -4.543  -6.180  0.00  0.00    +0.214 C 
ATOM     28  O   UNL     1       7.530  -4.069  -6.265  0.00  0.00    -0.276 OA
ATOM     29  N   UNL     1       9.678  -4.106  -5.353  0.00  0.00    -0.286 N 
ATOM     30  H   UNL     1      10.590  -4.526  -5.490  0.00  0.00    +0.155 HD
ENDBRANCH  20  29
ENDBRANCH  19  23
ENDBRANCH   1  19
TORSDOF 4
