REMARK  Name = L95
REMARK  7 active torsions:
REMARK  status: ('A' for Active; 'I' for Inactive)
REMARK    1  A    between atoms: C_1  and  C_2
REMARK    2  A    between atoms: N_4  and  C_8
REMARK    3  A    between atoms: C_11  and  C_14
REMARK    4  A    between atoms: C_20  and  N_23
REMARK    5  A    between atoms: N_26  and  C_29
REMARK    6  A    between atoms: C_29  and  C_30
REMARK    7  A    between atoms: C_33  and  C_35
REMARK                            x       y       z     vdW  Elec       q    Type
REMARK                         _______ _______ _______ _____ _____    ______ ____
ROOT
ATOM      1  C   UNL     1      -0.692  -6.276  -3.003  0.00  0.00    +0.141 A 
ATOM      2  N   UNL     1      -0.394  -7.560  -2.896  0.00  0.00    -0.208 NA
ATOM      3  C   UNL     1      -1.500  -8.227  -3.344  0.00  0.00    +0.180 A 
ATOM      4  N   UNL     1      -1.600  -9.567  -3.416  0.00  0.00    -0.233 NA
ATOM      5  C   UNL     1      -2.765  -9.989  -3.944  0.00  0.00    +0.135 A 
ATOM      6  C   UNL     1      -3.810  -9.180  -4.404  0.00  0.00    +0.082 A 
ATOM      7  C   UNL     1      -3.739  -7.763  -4.308  0.00  0.00    +0.077 A 
ATOM      8  C   UNL     1      -2.513  -7.359  -3.739  0.00  0.00    +0.108 A 
ATOM      9  N   UNL     1      -1.997  -6.136  -3.400  0.00  0.00    -0.335 N 
ATOM     10 CL   UNL     1      -5.089 -10.032  -5.211  0.00  0.00    -0.080 Cl
ATOM     11  H   UNL     1      -2.479  -5.255  -3.460  0.00  0.00    +0.167 HD
ENDROOT
BRANCH   1  15
ATOM     12  C   UNL     1       1.880  -2.922  -2.134  0.00  0.00    +0.030 A 
ATOM     13  C   UNL     1       0.827  -2.825  -3.051  0.00  0.00    +0.024 A 
ATOM     14  C   UNL     1      -0.009  -3.902  -3.348  0.00  0.00    +0.013 A 
ATOM     15  C   UNL     1       0.179  -5.143  -2.715  0.00  0.00    +0.017 A 
ATOM     16  C   UNL     1       1.226  -5.262  -1.807  0.00  0.00    +0.013 A 
ATOM     17  C   UNL     1       2.055  -4.176  -1.522  0.00  0.00    +0.024 A 
BRANCH  12  21
ATOM     18  C   UNL     1       2.901   0.002  -4.363  0.00  0.00    +0.025 C 
ATOM     19  C   UNL     1       3.156   0.363  -2.894  0.00  0.00    +0.068 C 
ATOM     20  C   UNL     1       2.253  -0.458  -1.936  0.00  0.00    +0.123 C 
ATOM     21  N   UNL     1       2.702  -1.853  -1.864  0.00  0.00    -0.327 N 
ATOM     22  C   UNL     1       4.114  -2.004  -1.476  0.00  0.00    +0.120 C 
ATOM     23  C   UNL     1       5.013  -1.146  -2.402  0.00  0.00    +0.100 C 
ATOM     24  N   UNL     1       4.594   0.263  -2.549  0.00  0.00    -0.311 NA
ATOM     25  H   UNL     1       5.152   0.700  -3.280  0.00  0.00    +0.122 HD
ENDBRANCH  12  21
ENDBRANCH   1  15
BRANCH   7  26
ATOM     26  N   UNL     1      -4.688  -6.863  -4.758  0.00  0.00    -0.325 N 
ATOM     27  C   UNL     1      -4.337  -5.510  -5.227  0.00  0.00    +0.120 C 
ATOM     28  C   UNL     1      -5.147  -5.121  -6.493  0.00  0.00    +0.103 C 
ATOM     29  N   UNL     1      -6.609  -5.346  -6.416  0.00  0.00    -0.294 NA
ATOM     30  C   UNL     1      -6.819  -6.753  -5.970  0.00  0.00    +0.103 C 
ATOM     31  C   UNL     1      -6.139  -7.091  -4.623  0.00  0.00    +0.120 C 
BRANCH  29  32
ATOM     32  C   UNL     1      -7.218  -4.365  -5.496  0.00  0.00    +0.143 C 
BRANCH  32  33
ATOM     33  C   UNL     1      -8.702  -4.523  -5.410  0.00  0.00    +0.098 A 
ATOM     34  N   UNL     1      -9.291  -4.776  -4.232  0.00  0.00    -0.082 NA
ATOM     35  O   UNL     1     -10.650  -4.784  -4.489  0.00  0.00    -0.360 OA
ATOM     36  C   UNL     1     -10.863  -4.543  -5.810  0.00  0.00    +0.135 A 
ATOM     37  C   UNL     1      -9.656  -4.405  -6.447  0.00  0.00    +0.072 A 
ATOM     38  C   UNL     1     -12.263  -4.449  -6.252  0.00  0.00    +0.089 C 
ENDBRANCH  32  33
ENDBRANCH  29  32
ENDBRANCH   7  26
TORSDOF 5
