REMARK  Name = L147
REMARK  6 active torsions:
REMARK  status: ('A' for Active; 'I' for Inactive)
REMARK    1  A    between atoms: N_3  and  C_14
REMARK    2  A    between atoms: N_6  and  C_7
REMARK    3  A    between atoms: C_7  and  C_8
REMARK    4  A    between atoms: C_22  and  C_24
REMARK    5  A    between atoms: C_27  and  C_30
REMARK    6  A    between atoms: C_30  and  N_31
REMARK                            x       y       z     vdW  Elec       q    Type
REMARK                         _______ _______ _______ _____ _____    ______ ____
ROOT
ATOM      1  C   UNL     1      -2.587   0.149   1.179  0.00  0.00    +0.073 A 
ATOM      2  C   UNL     1      -2.779  -0.385   2.475  0.00  0.00    +0.108 A 
ATOM      3  C   UNL     1      -3.971  -0.286   3.179  0.00  0.00    +0.180 A 
ATOM      4  N   UNL     1      -5.084   0.298   2.696  0.00  0.00    -0.233 NA
ATOM      5  C   UNL     1      -4.934   0.808   1.458  0.00  0.00    +0.130 A 
ATOM      6  C   UNL     1      -3.763   0.776   0.691  0.00  0.00    +0.059 A 
ATOM      7 BR   UNL     1      -3.885   1.717  -0.964  0.00  0.00    -0.047 Br
ATOM      8  N   UNL     1      -3.875  -0.815   4.428  0.00  0.00    -0.208 NA
ATOM      9  C   UNL     1      -2.642  -1.267   4.538  0.00  0.00    +0.141 A 
ATOM     10  N   UNL     1      -1.979  -1.109   3.339  0.00  0.00    -0.335 N 
ATOM     11  H   UNL     1      -1.026  -1.379   3.155  0.00  0.00    +0.167 HD
ENDROOT
BRANCH   1  14
ATOM     12  C   UNL     1      -0.168  -1.156  -1.307  0.00  0.00    +0.103 C 
ATOM     13  C   UNL     1      -1.325  -0.195  -0.950  0.00  0.00    +0.120 C 
ATOM     14  N   UNL     1      -1.390  -0.023   0.512  0.00  0.00    -0.325 N 
ATOM     15  C   UNL     1      -0.122   0.424   1.113  0.00  0.00    +0.120 C 
ATOM     16  C   UNL     1       1.020  -0.546   0.694  0.00  0.00    +0.103 C 
ATOM     17  N   UNL     1       1.162  -0.773  -0.770  0.00  0.00    -0.295 NA
BRANCH  17  18
ATOM     18  C   UNL     1       1.725   0.427  -1.415  0.00  0.00    +0.121 C 
BRANCH  18  19
ATOM     19  C   UNL     1       1.903   0.323  -2.908  0.00  0.00    -0.015 A 
ATOM     20  C   UNL     1       1.287   1.240  -3.756  0.00  0.00    +0.115 A 
ATOM     21  N   UNL     1       1.420   1.245  -5.101  0.00  0.00    -0.263 NA
ATOM     22  C   UNL     1       2.208   0.287  -5.631  0.00  0.00    +0.111 A 
ATOM     23  C   UNL     1       2.856  -0.680  -4.880  0.00  0.00    +0.020 A 
ATOM     24  C   UNL     1       2.706  -0.658  -3.497  0.00  0.00    +0.008 A 
ENDBRANCH  18  19
ENDBRANCH  17  18
ENDBRANCH   1  14
BRANCH   9  25
ATOM     25  C   UNL     1      -2.031  -1.724   5.796  0.00  0.00    +0.017 A 
ATOM     26  C   UNL     1      -0.984  -2.647   5.870  0.00  0.00    +0.012 A 
ATOM     27  C   UNL     1      -0.390  -2.949   7.110  0.00  0.00    +0.005 A 
ATOM     28  C   UNL     1      -0.816  -2.317   8.290  0.00  0.00    -0.033 A 
ATOM     29  C   UNL     1      -1.924  -1.468   8.218  0.00  0.00    +0.005 A 
ATOM     30  C   UNL     1      -2.520  -1.178   6.992  0.00  0.00    +0.012 A 
BRANCH  28  31
ATOM     31  C   UNL     1      -0.135  -2.547   9.624  0.00  0.00    +0.119 C 
BRANCH  31  32
ATOM     32  N   UNL     1       0.926  -1.626  10.047  0.00  0.00    -0.294 NA
ATOM     33  C   UNL     1       0.610  -0.191  10.081  0.00  0.00    +0.113 C 
ATOM     34  C   UNL     1       0.897   0.574   8.773  0.00  0.00    +0.175 C 
ATOM     35  O   UNL     1       2.207   0.307   8.252  0.00  0.00    -0.377 OA
ATOM     36  C   UNL     1       2.440  -1.098   8.110  0.00  0.00    +0.175 C 
ATOM     37  C   UNL     1       2.244  -1.833   9.441  0.00  0.00    +0.113 C 
ENDBRANCH  31  32
ENDBRANCH  28  31
ENDBRANCH   9  25
TORSDOF 6
