REMARK  Name = L69
REMARK  10 active torsions:
REMARK  status: ('A' for Active; 'I' for Inactive)
REMARK    1  A    between atoms: C_1  and  C_2
REMARK    2  A    between atoms: C_10  and  S_17
REMARK    3  A    between atoms: S_17  and  C_18
REMARK    4  A    between atoms: C_21  and  N_24
REMARK    5  A    between atoms: C_25  and  C_27
REMARK    6  A    between atoms: C_27  and  N_28
REMARK    7  A    between atoms: C_31  and  C_33
REMARK    8  A    between atoms: N_35  and  C_36
REMARK    9  A    between atoms: C_36  and  C_37
REMARK   10  A    between atoms: C_37  and  N_38
REMARK                            x       y       z     vdW  Elec       q    Type
REMARK                         _______ _______ _______ _____ _____    ______ ____
ROOT
ATOM      1  C   UNL     1       0.402   5.081   4.035  0.00  0.00    +0.016 A 
ATOM      2  C   UNL     1       0.121   3.752   3.692  0.00  0.00    +0.017 A 
ATOM      3  C   UNL     1      -0.158   2.801   4.687  0.00  0.00    +0.024 A 
ATOM      4  C   UNL     1      -0.147   3.186   6.032  0.00  0.00    +0.033 A 
ATOM      5  C   UNL     1       0.122   4.507   6.376  0.00  0.00    +0.024 A 
ATOM      6  C   UNL     1       0.407   5.449   5.385  0.00  0.00    +0.017 A 
ENDROOT
BRANCH   4   7
ATOM      7  N   UNL     1      -0.422   2.274   7.068  0.00  0.00    -0.284 N 
ATOM      8  C   UNL     1       0.521   1.352   7.486  0.00  0.00    +0.231 C 
ATOM      9  O   UNL     1       1.688   1.344   7.093  0.00  0.00    -0.274 OA
ATOM     10  H   UNL     1      -1.401   2.067   7.228  0.00  0.00    +0.155 HD
BRANCH   8  11
ATOM     11  C   UNL     1      -0.010   0.388   8.549  0.00  0.00    +0.180 C 
BRANCH  11  12
ATOM     12  N   UNL     1       0.494   0.657   9.900  0.00  0.00    -0.293 NA
ATOM     13  C   UNL     1       0.236   1.998  10.421  0.00  0.00    +0.085 C 
ATOM     14  C   UNL     1       1.555   2.740  10.303  0.00  0.00    +0.029 C 
ATOM     15  C   UNL     1       2.586   1.659  10.598  0.00  0.00    +0.090 C 
ATOM     16  C   UNL     1       1.932   0.373  10.081  0.00  0.00    +0.097 C 
BRANCH  15  17
ATOM     17  C   UNL     1       2.919   1.597  12.085  0.00  0.00    +0.217 C 
ATOM     18  O   UNL     1       2.663   0.642  12.813  0.00  0.00    -0.275 OA
ATOM     19  N   UNL     1       3.582   2.714  12.564  0.00  0.00    -0.314 N 
ATOM     20  H   UNL     1       3.670   3.531  11.972  0.00  0.00    +0.149 HD
BRANCH  19  21
ATOM     21  C   UNL     1       3.909   2.848  13.978  0.00  0.00    +0.119 C 
BRANCH  21  22
ATOM     22  C   UNL     1       4.957   1.817  14.452  0.00  0.00    +0.103 C 
BRANCH  22  23
ATOM     23  N   UNL     1       5.306   1.875  15.887  0.00  0.00    -0.297 NA
ATOM     24  C   UNL     1       6.359   0.870  16.194  0.00  0.00    +0.112 C 
ATOM     25  C   UNL     1       5.863  -0.589  16.147  0.00  0.00    +0.175 C 
ATOM     26  O   UNL     1       4.764  -0.790  17.044  0.00  0.00    -0.377 OA
ATOM     27  C   UNL     1       3.688   0.110  16.736  0.00  0.00    +0.175 C 
ATOM     28  C   UNL     1       4.157   1.576  16.776  0.00  0.00    +0.112 C 
ENDBRANCH  22  23
ENDBRANCH  21  22
ENDBRANCH  19  21
ENDBRANCH  15  17
ENDBRANCH  11  12
ENDBRANCH   8  11
ENDBRANCH   4   7
BRANCH   1  29
ATOM     29  S   UNL     1       0.846   6.280   2.795  0.00  0.00    -0.048 S 
BRANCH  29  39
ATOM     30  C   UNL     1       2.869  11.384  -0.483  0.00  0.00    +0.065 C 
ATOM     31  C   UNL     1       1.422  11.269  -0.209  0.00  0.00    +0.035 A 
ATOM     32  C   UNL     1       0.722  10.466   0.663  0.00  0.00    +0.068 A 
ATOM     33  C   UNL     1      -0.647  10.763   0.452  0.00  0.00    +0.146 A 
ATOM     34  N   UNL     1      -0.779  11.739  -0.457  0.00  0.00    -0.158 NA
ATOM     35  N   UNL     1       0.477  12.012  -0.853  0.00  0.00    -0.280 N 
ATOM     36  N   UNL     1      -1.725  10.196   1.044  0.00  0.00    -0.281 N 
ATOM     37  C   UNL     1      -1.734   8.895   1.519  0.00  0.00    +0.153 A 
ATOM     38  N   UNL     1      -0.665   8.283   1.935  0.00  0.00    -0.203 NA
ATOM     39  C   UNL     1      -0.714   6.981   2.360  0.00  0.00    +0.214 A 
ATOM     40  N   UNL     1      -1.770   6.239   2.430  0.00  0.00    -0.139 NA
ATOM     41  N   UNL     1      -2.886   6.854   2.036  0.00  0.00    -0.234 N 
ATOM     42  C   UNL     1      -2.957   8.137   1.579  0.00  0.00    +0.105 A 
ATOM     43  C   UNL     1      -4.274   8.396   1.240  0.00  0.00    +0.033 A 
ATOM     44  C   UNL     1      -5.014   7.213   1.503  0.00  0.00    +0.022 A 
ATOM     45  C   UNL     1      -4.128   6.283   1.999  0.00  0.00    +0.113 A 
ATOM     46  H   UNL     1       0.618  12.715  -1.574  0.00  0.00    +0.189 HD
ATOM     47  H   UNL     1      -2.613  10.551   0.711  0.00  0.00    +0.155 HD
ENDBRANCH  29  39
ENDBRANCH   1  29
TORSDOF 9
