REMARK  Name = L102
REMARK  8 active torsions:
REMARK  status: ('A' for Active; 'I' for Inactive)
REMARK    1  A    between atoms: C_1  and  C_2
REMARK    2  A    between atoms: C_4  and  C_7
REMARK    3  A    between atoms: C_7  and  N_8
REMARK    4  A    between atoms: N_11  and  C_14
REMARK    5  A    between atoms: C_22  and  C_24
REMARK    6  A    between atoms: N_26  and  C_29
REMARK    7  A    between atoms: C_29  and  C_30
REMARK    8  A    between atoms: C_29  and  C_31
REMARK                            x       y       z     vdW  Elec       q    Type
REMARK                         _______ _______ _______ _____ _____    ______ ____
ROOT
ATOM      1  C   UNL     1      -0.991  -6.998   0.556  0.00  0.00    +0.077 A 
ATOM      2  C   UNL     1      -0.607  -7.993  -0.366  0.00  0.00    +0.108 A 
ATOM      3  C   UNL     1      -0.620  -9.356  -0.081  0.00  0.00    +0.180 A 
ATOM      4  N   UNL     1      -1.016  -9.867   1.101  0.00  0.00    -0.233 NA
ATOM      5  C   UNL     1      -1.364  -8.935   2.011  0.00  0.00    +0.135 A 
ATOM      6  C   UNL     1      -1.362  -7.554   1.808  0.00  0.00    +0.082 A 
ATOM      7 CL   UNL     1      -1.696  -6.585   3.210  0.00  0.00    -0.080 Cl
ATOM      8  N   UNL     1      -0.193 -10.107  -1.140  0.00  0.00    -0.208 NA
ATOM      9  C   UNL     1       0.109  -9.238  -2.078  0.00  0.00    +0.144 A 
ATOM     10  N   UNL     1      -0.174  -7.964  -1.667  0.00  0.00    -0.335 N 
ATOM     11  H   UNL     1      -0.076  -7.140  -2.236  0.00  0.00    +0.167 HD
ENDROOT
BRANCH   1  15
ATOM     12  N   UNL     1      -0.647  -2.806   0.028  0.00  0.00    -0.294 NA
ATOM     13  C   UNL     1      -1.505  -3.388   1.089  0.00  0.00    +0.103 C 
ATOM     14  C   UNL     1      -2.061  -4.744   0.596  0.00  0.00    +0.120 C 
ATOM     15  N   UNL     1      -0.929  -5.645   0.288  0.00  0.00    -0.325 N 
ATOM     16  C   UNL     1       0.035  -5.072  -0.664  0.00  0.00    +0.120 C 
ATOM     17  C   UNL     1       0.513  -3.689  -0.169  0.00  0.00    +0.103 C 
BRANCH  12  18
ATOM     18  C   UNL     1      -0.269  -1.417   0.289  0.00  0.00    +0.143 C 
BRANCH  18  22
ATOM     19  C   UNL     1      -4.501   0.907  -1.385  0.00  0.00    +0.089 C 
ATOM     20  C   UNL     1      -3.304   0.386  -0.704  0.00  0.00    +0.135 A 
ATOM     21  C   UNL     1      -2.373  -0.570  -1.014  0.00  0.00    +0.072 A 
ATOM     22  C   UNL     1      -1.473  -0.550   0.082  0.00  0.00    +0.098 A 
ATOM     23  N   UNL     1      -1.845   0.351   1.000  0.00  0.00    -0.082 NA
ATOM     24  O   UNL     1      -2.999   0.935   0.502  0.00  0.00    -0.360 OA
ENDBRANCH  18  22
ENDBRANCH  12  18
ENDBRANCH   1  15
BRANCH   9  25
ATOM     25  C   UNL     1       0.660  -9.584  -3.406  0.00  0.00    +0.055 A 
ATOM     26  C   UNL     1       0.826 -10.858  -3.895  0.00  0.00    +0.120 A 
ATOM     27  N   UNL     1       1.313 -10.713  -5.162  0.00  0.00    -0.268 N 
ATOM     28  N   UNL     1       1.528  -9.422  -5.505  0.00  0.00    -0.179 NA
ATOM     29  C   UNL     1       1.120  -8.740  -4.431  0.00  0.00    +0.146 A 
BRANCH  27  30
ATOM     30  C   UNL     1       1.553 -11.781  -6.128  0.00  0.00    +0.101 C 
ATOM     31  C   UNL     1       0.698 -11.591  -7.381  0.00  0.00    +0.032 C 
ATOM     32  C   UNL     1       3.035 -11.902  -6.476  0.00  0.00    +0.032 C 
ENDBRANCH  27  30
ENDBRANCH   9  25
TORSDOF 5
