REMARK  Name = L103
REMARK  7 active torsions:
REMARK  status: ('A' for Active; 'I' for Inactive)
REMARK    1  A    between atoms: C_1  and  C_2
REMARK    2  A    between atoms: C_4  and  C_7
REMARK    3  A    between atoms: C_7  and  N_8
REMARK    4  A    between atoms: N_11  and  C_14
REMARK    5  A    between atoms: C_22  and  C_24
REMARK    6  A    between atoms: C_27  and  N_30
REMARK    7  A    between atoms: N_33  and  C_36
REMARK                            x       y       z     vdW  Elec       q    Type
REMARK                         _______ _______ _______ _____ _____    ______ ____
ROOT
ATOM      1  C   UNL     1      -0.990  -6.999   0.548  0.00  0.00    +0.077 A 
ATOM      2  C   UNL     1      -0.621  -7.999  -0.370  0.00  0.00    +0.108 A 
ATOM      3  C   UNL     1      -0.539  -9.351  -0.063  0.00  0.00    +0.180 A 
ATOM      4  N   UNL     1      -0.858  -9.858   1.144  0.00  0.00    -0.233 NA
ATOM      5  C   UNL     1      -1.228  -8.919   2.040  0.00  0.00    +0.135 A 
ATOM      6  C   UNL     1      -1.306  -7.542   1.818  0.00  0.00    +0.082 A 
ATOM      7 CL   UNL     1      -1.657  -6.572   3.209  0.00  0.00    -0.080 Cl
ATOM      8  N   UNL     1      -0.077 -10.088  -1.119  0.00  0.00    -0.208 NA
ATOM      9  C   UNL     1       0.085  -9.232  -2.110  0.00  0.00    +0.141 A 
ATOM     10  N   UNL     1      -0.275  -7.971  -1.700  0.00  0.00    -0.335 N 
ATOM     11  H   UNL     1      -0.250  -7.150  -2.280  0.00  0.00    +0.167 HD
ENDROOT
BRANCH   1  15
ATOM     12  N   UNL     1      -0.684  -2.812   0.004  0.00  0.00    -0.294 NA
ATOM     13  C   UNL     1      -1.508  -3.403   1.088  0.00  0.00    +0.103 C 
ATOM     14  C   UNL     1      -2.089  -4.749   0.597  0.00  0.00    +0.120 C 
ATOM     15  N   UNL     1      -0.978  -5.654   0.242  0.00  0.00    -0.325 N 
ATOM     16  C   UNL     1      -0.029  -5.078  -0.724  0.00  0.00    +0.120 C 
ATOM     17  C   UNL     1       0.466  -3.696  -0.241  0.00  0.00    +0.103 C 
BRANCH  12  18
ATOM     18  C   UNL     1      -0.292  -1.425   0.273  0.00  0.00    +0.143 C 
BRANCH  18  22
ATOM     19  C   UNL     1      -4.590   0.881  -1.248  0.00  0.00    +0.089 C 
ATOM     20  C   UNL     1      -3.358   0.379  -0.618  0.00  0.00    +0.135 A 
ATOM     21  C   UNL     1      -2.429  -0.564  -0.967  0.00  0.00    +0.072 A 
ATOM     22  C   UNL     1      -1.498  -0.551   0.102  0.00  0.00    +0.098 A 
ATOM     23  N   UNL     1      -1.843   0.345   1.036  0.00  0.00    -0.082 NA
ATOM     24  O   UNL     1      -3.015   0.926   0.579  0.00  0.00    -0.360 OA
ENDBRANCH  18  22
ENDBRANCH  12  18
ENDBRANCH   1  15
BRANCH   9  25
ATOM     25  C   UNL     1       0.588  -9.531  -3.450  0.00  0.00    +0.017 A 
ATOM     26  C   UNL     1       0.306  -8.717  -4.550  0.00  0.00    +0.013 A 
ATOM     27  C   UNL     1       0.801  -9.036  -5.822  0.00  0.00    +0.024 A 
ATOM     28  C   UNL     1       1.591 -10.171  -6.047  0.00  0.00    +0.030 A 
ATOM     29  C   UNL     1       1.869 -10.970  -4.929  0.00  0.00    +0.024 A 
ATOM     30  C   UNL     1       1.377 -10.663  -3.654  0.00  0.00    +0.013 A 
BRANCH  28  31
ATOM     31  N   UNL     1       2.105 -10.473  -7.289  0.00  0.00    -0.327 N 
ATOM     32  C   UNL     1       2.340  -9.451  -8.318  0.00  0.00    +0.120 C 
ATOM     33  C   UNL     1       3.700  -9.716  -9.014  0.00  0.00    +0.103 C 
ATOM     34  N   UNL     1       3.901 -11.086  -9.536  0.00  0.00    -0.302 NA
ATOM     35  C   UNL     1       3.587 -12.062  -8.465  0.00  0.00    +0.103 C 
ATOM     36  C   UNL     1       2.221 -11.861  -7.766  0.00  0.00    +0.120 C 
ATOM     37  C   UNL     1       3.095 -11.324 -10.731  0.00  0.00    +0.105 C 
ENDBRANCH  28  31
ENDBRANCH   9  25
TORSDOF 5
