REMARK  Name = L129
REMARK  6 active torsions:
REMARK  status: ('A' for Active; 'I' for Inactive)
REMARK    1  A    between atoms: N_3  and  C_15
REMARK    2  A    between atoms: N_6  and  C_7
REMARK    3  A    between atoms: C_7  and  C_8
REMARK    4  A    between atoms: C_23  and  C_25
REMARK    5  A    between atoms: C_28  and  C_31
REMARK    6  A    between atoms: C_31  and  N_32
REMARK                            x       y       z     vdW  Elec       q    Type
REMARK                         _______ _______ _______ _____ _____    ______ ____
ROOT
ATOM      1  C   UNL     1      -2.560   0.093   1.050  0.00  0.00    +0.073 A 
ATOM      2  C   UNL     1      -3.761   0.581   0.489  0.00  0.00    +0.108 A 
ATOM      3  C   UNL     1      -4.973   0.602   1.168  0.00  0.00    +0.180 A 
ATOM      4  N   UNL     1      -5.145   0.141   2.420  0.00  0.00    -0.233 NA
ATOM      5  C   UNL     1      -4.018  -0.330   2.981  0.00  0.00    +0.130 A 
ATOM      6  C   UNL     1      -2.754  -0.369   2.381  0.00  0.00    +0.059 A 
ATOM      7 BR   UNL     1      -1.352  -0.933   3.549  0.00  0.00    -0.047 Br
ATOM      8  N   UNL     1      -5.966   1.152   0.416  0.00  0.00    -0.208 NA
ATOM      9  C   UNL     1      -5.415   1.479  -0.738  0.00  0.00    +0.141 A 
ATOM     10  N   UNL     1      -4.096   1.094  -0.745  0.00  0.00    -0.335 N 
ATOM     11  H   UNL     1      -3.479   1.171  -1.536  0.00  0.00    +0.167 HD
ENDROOT
BRANCH   1  14
ATOM     12  C   UNL     1       1.020  -0.413   0.620  0.00  0.00    +0.103 C 
ATOM     13  C   UNL     1      -0.398  -0.983   0.389  0.00  0.00    +0.120 C 
ATOM     14  N   UNL     1      -1.355   0.134   0.378  0.00  0.00    -0.325 N 
ATOM     15  C   UNL     1      -1.032   1.185  -0.601  0.00  0.00    +0.120 C 
ATOM     16  C   UNL     1       0.443   1.644  -0.468  0.00  0.00    +0.103 C 
ATOM     17  N   UNL     1       1.450   0.558  -0.422  0.00  0.00    -0.295 NA
BRANCH  17  18
ATOM     18  C   UNL     1       1.612  -0.056  -1.750  0.00  0.00    +0.119 C 
BRANCH  18  19
ATOM     19  C   UNL     1       2.634  -1.178  -1.772  0.00  0.00    -0.033 A 
ATOM     20  C   UNL     1       2.244  -2.497  -2.050  0.00  0.00    +0.006 A 
ATOM     21  C   UNL     1       3.179  -3.533  -2.023  0.00  0.00    +0.020 A 
ATOM     22  C   UNL     1       4.509  -3.253  -1.722  0.00  0.00    +0.041 A 
ATOM     23  C   UNL     1       4.915  -1.948  -1.454  0.00  0.00    +0.020 A 
ATOM     24  C   UNL     1       3.982  -0.914  -1.482  0.00  0.00    +0.006 A 
ATOM     25 CL   UNL     1       5.661  -4.530  -1.674  0.00  0.00    -0.084 Cl
ENDBRANCH  18  19
ENDBRANCH  17  18
ENDBRANCH   1  14
BRANCH   9  26
ATOM     26  C   UNL     1      -6.122   2.133  -1.841  0.00  0.00    +0.017 A 
ATOM     27  C   UNL     1      -5.494   2.887  -2.844  0.00  0.00    +0.012 A 
ATOM     28  C   UNL     1      -6.258   3.602  -3.787  0.00  0.00    +0.005 A 
ATOM     29  C   UNL     1      -7.661   3.579  -3.743  0.00  0.00    -0.033 A 
ATOM     30  C   UNL     1      -8.278   2.783  -2.770  0.00  0.00    +0.005 A 
ATOM     31  C   UNL     1      -7.521   2.071  -1.840  0.00  0.00    +0.012 A 
BRANCH  29  32
ATOM     32  C   UNL     1      -8.517   4.488  -4.602  0.00  0.00    +0.119 C 
BRANCH  32  33
ATOM     33  N   UNL     1      -9.087   3.994  -5.851  0.00  0.00    -0.294 NA
ATOM     34  C   UNL     1      -9.810   2.721  -5.810  0.00  0.00    +0.113 C 
ATOM     35  C   UNL     1      -8.914   1.498  -6.061  0.00  0.00    +0.175 C 
ATOM     36  O   UNL     1      -8.213   1.620  -7.306  0.00  0.00    -0.377 OA
ATOM     37  C   UNL     1      -7.422   2.814  -7.345  0.00  0.00    +0.175 C 
ATOM     38  C   UNL     1      -8.243   4.076  -7.043  0.00  0.00    +0.113 C 
ENDBRANCH  32  33
ENDBRANCH  29  32
ENDBRANCH   9  26
TORSDOF 6
