REMARK  Name = L175
REMARK  5 active torsions:
REMARK  status: ('A' for Active; 'I' for Inactive)
REMARK    1  A    between atoms: C_4  and  N_10
REMARK    2  A    between atoms: C_5  and  C_7
REMARK    3  A    between atoms: C_7  and  O_9
REMARK    4  A    between atoms: N_17  and  C_18
REMARK    5  A    between atoms: C_22  and  C_24
REMARK                            x       y       z     vdW  Elec       q    Type
REMARK                         _______ _______ _______ _____ _____    ______ ____
ROOT
ATOM      1  N   UNL     1      -2.752   0.405   0.010  0.00  0.00    -0.283 N 
ATOM      2  C   UNL     1      -3.707  -0.606  -0.188  0.00  0.00    +0.221 A 
ATOM      3  N   UNL     1      -4.365  -0.609  -1.356  0.00  0.00    -0.223 NA
ATOM      4  C   UNL     1      -5.319  -1.543  -1.514  0.00  0.00    +0.118 A 
ATOM      5  C   UNL     1      -5.610  -2.495  -0.570  0.00  0.00    +0.063 A 
ATOM      6  C   UNL     1      -4.855  -2.459   0.582  0.00  0.00    +0.128 A 
ATOM      7  N   UNL     1      -3.920  -1.517   0.777  0.00  0.00    -0.199 NA
ATOM      8  N   UNL     1      -5.080  -3.457   1.557  0.00  0.00    -0.299 N 
ATOM      9  H   UNL     1      -1.972   0.191  -0.616  0.00  0.00    +0.155 HD
ATOM     10  H   UNL     1      -6.052  -3.479   1.838  0.00  0.00    +0.154 HD
ENDROOT
BRANCH   1  14
ATOM     11  C   UNL     1      -1.609   1.990   3.781  0.00  0.00    +0.001 A 
ATOM     12  C   UNL     1      -2.915   1.582   3.548  0.00  0.00    +0.002 A 
ATOM     13  C   UNL     1      -3.269   1.054   2.305  0.00  0.00    +0.024 A 
ATOM     14  C   UNL     1      -2.331   0.909   1.266  0.00  0.00    +0.048 A 
ATOM     15  C   UNL     1      -1.031   1.412   1.490  0.00  0.00    +0.080 A 
ATOM     16  C   UNL     1      -0.668   1.907   2.756  0.00  0.00    +0.017 A 
BRANCH  15  17
ATOM     17  C   UNL     1      -0.025   1.387   0.400  0.00  0.00    +0.339 C 
ATOM     18  O   UNL     1       0.005   0.517  -0.456  0.00  0.00    -0.245 OA
BRANCH  17  19
ATOM     19  O   UNL     1       0.814   2.447   0.408  0.00  0.00    -0.477 OA
ATOM     20  H   UNL     1       0.545   3.178   0.996  0.00  0.00    +0.295 HD
ENDBRANCH  17  19
ENDBRANCH  15  17
ENDBRANCH   1  14
BRANCH   8  21
ATOM     21  C   UNL     1      -4.186  -3.881   2.562  0.00  0.00    +0.033 A 
ATOM     22  C   UNL     1      -4.680  -4.310   3.801  0.00  0.00    +0.023 A 
ATOM     23  C   UNL     1      -3.821  -4.819   4.778  0.00  0.00    +0.002 A 
ATOM     24  C   UNL     1      -2.456  -4.929   4.521  0.00  0.00    +0.012 A 
ATOM     25  C   UNL     1      -1.933  -4.508   3.291  0.00  0.00    +0.057 A 
ATOM     26  C   UNL     1      -2.807  -3.971   2.329  0.00  0.00    +0.035 A 
BRANCH  25  27
ATOM     27  C   UNL     1      -0.467  -4.653   2.972  0.00  0.00    +0.417 C 
ATOM     28  F   UNL     1       0.249  -5.241   3.973  0.00  0.00    -0.166 F 
ATOM     29  F   UNL     1      -0.247  -5.420   1.867  0.00  0.00    -0.166 F 
ATOM     30  F   UNL     1       0.145  -3.462   2.732  0.00  0.00    -0.166 F 
ENDBRANCH  25  27
ENDBRANCH   8  21
TORSDOF 5
