REMARK  Name = L50
REMARK  7 active torsions:
REMARK  status: ('A' for Active; 'I' for Inactive)
REMARK    1  A    between atoms: C_1  and  C_2
REMARK    2  A    between atoms: C_2  and  C_3
REMARK    3  A    between atoms: N_5  and  C_6
REMARK    4  A    between atoms: C_9  and  S_12
REMARK    5  A    between atoms: S_12  and  C_13
REMARK    6  A    between atoms: C_15  and  C_26
REMARK    7  A    between atoms: C_23  and  C_25
REMARK                            x       y       z     vdW  Elec       q    Type
REMARK                         _______ _______ _______ _____ _____    ______ ____
ROOT
ATOM      1  C   UNL     1       5.050   7.494  -4.101  0.00  0.00    +0.195 A 
ATOM      2  N   UNL     1       4.254   7.831  -5.131  0.00  0.00    -0.227 NA
ATOM      3  C   UNL     1       3.364   8.809  -4.909  0.00  0.00    +0.044 A 
ATOM      4  C   UNL     1       3.269   9.446  -3.694  0.00  0.00    +0.067 A 
ATOM      5  C   UNL     1       4.129   9.052  -2.689  0.00  0.00    +0.129 A 
ATOM      6  N   UNL     1       5.004   8.047  -2.873  0.00  0.00    -0.206 NA
ATOM      7  N   UNL     1       4.132   9.678  -1.431  0.00  0.00    -0.283 N 
ATOM      8  C   UNL     1       3.677  10.904  -1.087  0.00  0.00    +0.146 A 
ATOM      9  N   UNL     1       3.198  11.839  -1.913  0.00  0.00    -0.158 NA
ATOM     10  N   UNL     1       2.881  12.869  -1.126  0.00  0.00    -0.280 N 
ATOM     11  C   UNL     1       3.113  12.636   0.198  0.00  0.00    +0.035 A 
ATOM     12  C   UNL     1       3.666  11.373   0.251  0.00  0.00    +0.068 A 
ATOM     13  C   UNL     1       2.777  13.626   1.242  0.00  0.00    +0.065 C 
ATOM     14  C   UNL     1       2.462   9.223  -6.031  0.00  0.00    +0.066 C 
ATOM     15  H   UNL     1       4.755   9.175  -0.811  0.00  0.00    +0.155 HD
ATOM     16  H   UNL     1       2.496  13.701  -1.561  0.00  0.00    +0.189 HD
ENDROOT
BRANCH   1  17
ATOM     17  S   UNL     1       6.233   6.207  -4.446  0.00  0.00    -0.050 S 
BRANCH  17  21
ATOM     18  C   UNL     1       9.671   7.109  -1.528  0.00  0.00    +0.033 A 
ATOM     19  C   UNL     1       8.586   6.317  -1.151  0.00  0.00    +0.024 A 
ATOM     20  C   UNL     1       7.542   6.049  -2.038  0.00  0.00    +0.017 A 
ATOM     21  C   UNL     1       7.555   6.588  -3.322  0.00  0.00    +0.016 A 
ATOM     22  C   UNL     1       8.637   7.383  -3.713  0.00  0.00    +0.017 A 
ATOM     23  C   UNL     1       9.684   7.655  -2.818  0.00  0.00    +0.024 A 
BRANCH  18  26
ATOM     24  C   UNL     1      11.013   6.711   0.524  0.00  0.00    +0.217 C 
ATOM     25  O   UNL     1      10.422   5.711   0.917  0.00  0.00    -0.275 OA
ATOM     26  N   UNL     1      10.750   7.393  -0.656  0.00  0.00    -0.286 N 
ATOM     27  H   UNL     1      11.430   8.071  -0.969  0.00  0.00    +0.155 HD
BRANCH  24  29
ATOM     28  C   UNL     1      12.396   6.476   2.584  0.00  0.00    +0.013 C 
ATOM     29  C   UNL     1      12.143   7.315   1.337  0.00  0.00    +0.093 C 
ENDBRANCH  24  29
ENDBRANCH  18  26
ENDBRANCH  17  21
ENDBRANCH   1  17
TORSDOF 4
