REMARK  Name = L17
REMARK  5 active torsions:
REMARK  status: ('A' for Active; 'I' for Inactive)
REMARK    1  A    between atoms: C_1  and  C_2
REMARK    2  A    between atoms: C_5  and  C_8
REMARK    3  A    between atoms: N_10  and  C_11
REMARK    4  A    between atoms: C_14  and  N_17
REMARK    5  A    between atoms: N_17  and  C_18
REMARK                            x       y       z     vdW  Elec       q    Type
REMARK                         _______ _______ _______ _____ _____    ______ ____
ROOT
ATOM      1  N   UNL     1      -9.573   1.209  -0.133  0.00  0.00    -0.314 N 
ATOM      2  H   UNL     1      -9.996   0.487   0.461  0.00  0.00    +0.152 HD
ENDROOT
BRANCH   1   3
ATOM      3  C   UNL     1     -10.297   1.357  -1.336  0.00  0.00    +0.044 A 
ATOM      4  C   UNL     1     -11.620   1.828  -1.338  0.00  0.00    +0.046 A 
ATOM      5  C   UNL     1     -12.332   2.392  -0.175  0.00  0.00    -0.000 A 
ATOM      6  C   UNL     1     -13.589   2.003   0.252  0.00  0.00    +0.009 A 
ATOM      7  C   UNL     1     -14.249   2.765   1.222  0.00  0.00    +0.001 A 
ATOM      8  C   UNL     1     -13.593   3.836   1.846  0.00  0.00    +0.001 A 
ATOM      9  C   UNL     1     -12.410   4.325   1.293  0.00  0.00    +0.014 A 
ATOM     10  C   UNL     1     -11.933   3.682   0.158  0.00  0.00    +0.047 A 
ATOM     11  C   UNL     1     -11.381   4.325  -1.081  0.00  0.00    +0.258 A 
ATOM     12  O   UNL     1     -10.272   4.860  -1.060  0.00  0.00    -0.267 OA
ATOM     13  N   UNL     1     -12.067   3.925  -2.290  0.00  0.00    -0.306 N 
ATOM     14  C   UNL     1     -11.930   2.488  -2.521  0.00  0.00    +0.143 A 
ATOM     15  N   UNL     1     -11.512   2.074  -3.731  0.00  0.00    -0.237 NA
ATOM     16  C   UNL     1     -10.393   1.329  -3.712  0.00  0.00    +0.115 A 
ATOM     17  C   UNL     1      -9.662   1.150  -2.566  0.00  0.00    +0.043 A 
ATOM     18  H   UNL     1     -13.073   4.060  -2.196  0.00  0.00    +0.170 HD
ENDBRANCH   1   3
BRANCH   1  22
ATOM     19  C   UNL     1      -5.378   1.293  -0.135  0.00  0.00    +0.034 A 
ATOM     20  C   UNL     1      -6.085   2.245  -0.864  0.00  0.00    +0.025 A 
ATOM     21  C   UNL     1      -7.483   2.293  -0.769  0.00  0.00    +0.025 A 
ATOM     22  C   UNL     1      -8.180   1.308  -0.022  0.00  0.00    +0.031 A 
ATOM     23  C   UNL     1      -7.450   0.387   0.718  0.00  0.00    +0.025 A 
ATOM     24  C   UNL     1      -6.060   0.388   0.686  0.00  0.00    +0.025 A 
BRANCH  19  27
ATOM     25  C   UNL     1      -3.139   2.209  -0.580  0.00  0.00    +0.248 C 
ATOM     26  O   UNL     1      -3.491   3.314  -0.926  0.00  0.00    -0.270 OA
ATOM     27  N   UNL     1      -3.982   1.167  -0.196  0.00  0.00    -0.282 N 
ATOM     28  H   UNL     1      -3.586   0.342   0.215  0.00  0.00    +0.155 HD
BRANCH  25  33
ATOM     29  C   UNL     1       2.577   1.474  -0.114  0.00  0.00    +0.044 C 
ATOM     30  C   UNL     1       1.095   1.659  -0.252  0.00  0.00    -0.050 A 
ATOM     31  C   UNL     1       0.512   2.917  -0.083  0.00  0.00    +0.004 A 
ATOM     32  C   UNL     1      -0.868   3.069  -0.196  0.00  0.00    +0.013 A 
ATOM     33  C   UNL     1      -1.681   1.962  -0.468  0.00  0.00    +0.037 A 
ATOM     34  C   UNL     1      -1.107   0.701  -0.653  0.00  0.00    +0.013 A 
ATOM     35  C   UNL     1       0.276   0.557  -0.545  0.00  0.00    +0.004 A 
ENDBRANCH  25  33
ENDBRANCH  19  27
ENDBRANCH   1  22
TORSDOF 4
