REMARK  Name = L136
REMARK  6 active torsions:
REMARK  status: ('A' for Active; 'I' for Inactive)
REMARK    1  A    between atoms: C_1  and  O_2
REMARK    2  A    between atoms: O_2  and  C_3
REMARK    3  A    between atoms: C_6  and  C_9
REMARK    4  A    between atoms: C_15  and  N_18
REMARK    5  A    between atoms: N_21  and  C_24
REMARK    6  A    between atoms: C_24  and  C_25
REMARK                            x       y       z     vdW  Elec       q    Type
REMARK                         _______ _______ _______ _____ _____    ______ ____
ROOT
ATOM      1  C   UNL     1       5.625  -3.446   3.227  0.00  0.00    +0.141 A 
ATOM      2  N   UNL     1       6.081  -4.604   2.794  0.00  0.00    -0.208 NA
ATOM      3  C   UNL     1       6.754  -5.154   3.849  0.00  0.00    +0.180 A 
ATOM      4  N   UNL     1       7.375  -6.348   3.811  0.00  0.00    -0.233 NA
ATOM      5  C   UNL     1       7.984  -6.676   4.966  0.00  0.00    +0.130 A 
ATOM      6  C   UNL     1       8.006  -5.907   6.136  0.00  0.00    +0.059 A 
ATOM      7  C   UNL     1       7.337  -4.658   6.203  0.00  0.00    +0.073 A 
ATOM      8  C   UNL     1       6.719  -4.339   4.974  0.00  0.00    +0.108 A 
ATOM      9  N   UNL     1       5.953  -3.279   4.551  0.00  0.00    -0.335 N 
ATOM     10 BR   UNL     1       9.121  -6.604   7.519  0.00  0.00    -0.047 Br
ATOM     11  H   UNL     1       5.656  -2.506   5.124  0.00  0.00    +0.167 HD
ENDROOT
BRANCH   1  15
ATOM     12  C   UNL     1       3.215  -0.688   1.014  0.00  0.00    +0.120 A 
ATOM     13  C   UNL     1       3.166  -2.057   0.744  0.00  0.00    +0.046 A 
ATOM     14  C   UNL     1       3.965  -2.949   1.465  0.00  0.00    +0.015 A 
ATOM     15  C   UNL     1       4.827  -2.487   2.464  0.00  0.00    +0.018 A 
ATOM     16  C   UNL     1       4.903  -1.106   2.700  0.00  0.00    +0.015 A 
ATOM     17  C   UNL     1       4.102  -0.212   1.976  0.00  0.00    +0.046 A 
BRANCH  12  19
ATOM     18  C   UNL     1       2.005   1.332   0.815  0.00  0.00    +0.277 C 
ATOM     19  O   UNL     1       2.387   0.084   0.247  0.00  0.00    -0.495 OA
ENDBRANCH  12  19
ENDBRANCH   1  15
BRANCH   7  20
ATOM     20  N   UNL     1       7.298  -3.809   7.291  0.00  0.00    -0.325 N 
ATOM     21  C   UNL     1       7.088  -4.264   8.676  0.00  0.00    +0.120 C 
ATOM     22  C   UNL     1       8.152  -3.625   9.613  0.00  0.00    +0.103 C 
ATOM     23  N   UNL     1       8.230  -2.138   9.542  0.00  0.00    -0.295 NA
ATOM     24  C   UNL     1       8.437  -1.773   8.119  0.00  0.00    +0.103 C 
ATOM     25  C   UNL     1       7.400  -2.351   7.133  0.00  0.00    +0.120 C 
BRANCH  23  26
ATOM     26  C   UNL     1       7.024  -1.539  10.136  0.00  0.00    +0.122 C 
BRANCH  26  27
ATOM     27  C   UNL     1       6.980  -0.043  10.107  0.00  0.00    +0.003 A 
ATOM     28  C   UNL     1       5.955   0.645   9.484  0.00  0.00    +0.119 A 
ATOM     29  N   UNL     1       5.854   1.986   9.449  0.00  0.00    -0.243 NA
ATOM     30  C   UNL     1       6.831   2.652  10.085  0.00  0.00    +0.221 A 
ATOM     31  N   UNL     1       7.874   2.102  10.727  0.00  0.00    -0.243 NA
ATOM     32  C   UNL     1       7.925   0.753  10.720  0.00  0.00    +0.119 A 
ENDBRANCH  26  27
ENDBRANCH  23  26
ENDBRANCH   7  20
TORSDOF 5
