REMARK  Name = L73
REMARK  7 active torsions:
REMARK  status: ('A' for Active; 'I' for Inactive)
REMARK    1  A    between atoms: C_1  and  C_2
REMARK    2  A    between atoms: C_10  and  S_17
REMARK    3  A    between atoms: S_17  and  C_18
REMARK    4  A    between atoms: C_21  and  N_24
REMARK    5  A    between atoms: C_25  and  C_27
REMARK    6  A    between atoms: C_27  and  N_28
REMARK    7  A    between atoms: C_31  and  C_33
REMARK                            x       y       z     vdW  Elec       q    Type
REMARK                         _______ _______ _______ _____ _____    ______ ____
ROOT
ATOM      1  C   UNL     1       0.305   4.783   3.711  0.00  0.00    +0.016 A 
ATOM      2  C   UNL     1      -0.969   4.744   4.291  0.00  0.00    +0.017 A 
ATOM      3  C   UNL     1      -1.244   3.879   5.356  0.00  0.00    +0.024 A 
ATOM      4  C   UNL     1      -0.241   3.054   5.862  0.00  0.00    +0.033 A 
ATOM      5  C   UNL     1       1.040   3.099   5.311  0.00  0.00    +0.024 A 
ATOM      6  C   UNL     1       1.305   3.947   4.223  0.00  0.00    +0.017 A 
ENDROOT
BRANCH   4   7
ATOM      7  N   UNL     1      -0.533   2.237   6.975  0.00  0.00    -0.284 N 
ATOM      8  C   UNL     1      -0.991   0.928   6.782  0.00  0.00    +0.231 C 
ATOM      9  O   UNL     1      -1.308   0.463   5.690  0.00  0.00    -0.274 OA
ATOM     10  H   UNL     1       0.085   2.350   7.767  0.00  0.00    +0.155 HD
BRANCH   8  11
ATOM     11  C   UNL     1      -1.102   0.129   8.100  0.00  0.00    +0.180 C 
BRANCH  11  12
ATOM     12  N   UNL     1      -0.359  -1.144   8.064  0.00  0.00    -0.293 NA
ATOM     13  C   UNL     1      -0.551  -1.945   9.277  0.00  0.00    +0.085 C 
ATOM     14  C   UNL     1       0.689  -1.704  10.118  0.00  0.00    +0.029 C 
ATOM     15  C   UNL     1       1.798  -1.630   9.080  0.00  0.00    +0.090 C 
ATOM     16  C   UNL     1       1.096  -1.004   7.865  0.00  0.00    +0.097 C 
BRANCH  15  17
ATOM     17  C   UNL     1       2.424  -2.997   8.790  0.00  0.00    +0.220 C 
ATOM     18  O   UNL     1       2.283  -3.567   7.708  0.00  0.00    -0.275 OA
ATOM     19  N   UNL     1       3.195  -3.565   9.786  0.00  0.00    -0.301 N 
ATOM     20  C   UNL     1       3.522  -3.035  11.098  0.00  0.00    +0.108 C 
ATOM     21  C   UNL     1       4.900  -3.609  11.374  0.00  0.00    +0.020 C 
ATOM     22  C   UNL     1       4.831  -4.997  10.747  0.00  0.00    +0.020 C 
ATOM     23  C   UNL     1       3.868  -4.839   9.573  0.00  0.00    +0.108 C 
ENDBRANCH  15  17
ENDBRANCH  11  12
ENDBRANCH   8  11
ENDBRANCH   4   7
BRANCH   1  24
ATOM     24  S   UNL     1       0.565   5.786   2.257  0.00  0.00    -0.048 S 
BRANCH  24  34
ATOM     25  C   UNL     1      -0.895   7.472   8.237  0.00  0.00    +0.065 C 
ATOM     26  C   UNL     1       0.282   8.131   7.624  0.00  0.00    +0.035 A 
ATOM     27  C   UNL     1       0.681   8.212   6.318  0.00  0.00    +0.068 A 
ATOM     28  C   UNL     1       1.920   8.900   6.334  0.00  0.00    +0.146 A 
ATOM     29  N   UNL     1       2.223   9.298   7.574  0.00  0.00    -0.158 NA
ATOM     30  N   UNL     1       1.224   8.808   8.335  0.00  0.00    -0.280 N 
ATOM     31  N   UNL     1       2.734   9.156   5.285  0.00  0.00    -0.281 N 
ATOM     32  C   UNL     1       2.808   8.339   4.173  0.00  0.00    +0.153 A 
ATOM     33  N   UNL     1       1.836   7.568   3.789  0.00  0.00    -0.203 NA
ATOM     34  C   UNL     1       1.966   6.761   2.689  0.00  0.00    +0.214 A 
ATOM     35  N   UNL     1       3.003   6.675   1.921  0.00  0.00    -0.139 NA
ATOM     36  N   UNL     1       4.014   7.465   2.293  0.00  0.00    -0.234 N 
ATOM     37  C   UNL     1       3.998   8.298   3.369  0.00  0.00    +0.105 A 
ATOM     38  C   UNL     1       5.225   8.926   3.454  0.00  0.00    +0.033 A 
ATOM     39  C   UNL     1       6.011   8.454   2.372  0.00  0.00    +0.022 A 
ATOM     40  C   UNL     1       5.227   7.560   1.671  0.00  0.00    +0.113 A 
ATOM     41  H   UNL     1       1.266   8.968   9.338  0.00  0.00    +0.189 HD
ATOM     42  H   UNL     1       3.574   9.662   5.526  0.00  0.00    +0.155 HD
ENDBRANCH  24  34
ENDBRANCH   1  24
TORSDOF 6
