REMARK  Name = L98
REMARK  7 active torsions:
REMARK  status: ('A' for Active; 'I' for Inactive)
REMARK    1  A    between atoms: C_1  and  C_2
REMARK    2  A    between atoms: C_4  and  C_7
REMARK    3  A    between atoms: C_7  and  N_8
REMARK    4  A    between atoms: N_11  and  C_14
REMARK    5  A    between atoms: C_22  and  C_24
REMARK    6  A    between atoms: C_27  and  C_30
REMARK    7  A    between atoms: C_30  and  N_31
REMARK                            x       y       z     vdW  Elec       q    Type
REMARK                         _______ _______ _______ _____ _____    ______ ____
ROOT
ATOM      1  C   UNL     1      -1.031  -6.971   0.519  0.00  0.00    +0.077 A 
ATOM      2  C   UNL     1      -0.592  -7.974  -0.368  0.00  0.00    +0.108 A 
ATOM      3  C   UNL     1      -0.492  -9.324  -0.038  0.00  0.00    +0.180 A 
ATOM      4  N   UNL     1      -0.812  -9.812   1.168  0.00  0.00    -0.233 NA
ATOM      5  C   UNL     1      -1.245  -8.878   2.038  0.00  0.00    +0.135 A 
ATOM      6  C   UNL     1      -1.365  -7.503   1.791  0.00  0.00    +0.082 A 
ATOM      7 CL   UNL     1      -1.810  -6.538   3.163  0.00  0.00    -0.080 Cl
ATOM      8  N   UNL     1      -0.001 -10.069  -1.072  0.00  0.00    -0.208 NA
ATOM      9  C   UNL     1       0.163  -9.226  -2.073  0.00  0.00    +0.141 A 
ATOM     10  N   UNL     1      -0.195  -7.962  -1.678  0.00  0.00    -0.335 N 
ATOM     11  H   UNL     1      -0.144  -7.146  -2.262  0.00  0.00    +0.167 HD
ENDROOT
BRANCH   1  15
ATOM     12  N   UNL     1      -0.648  -2.840   0.035  0.00  0.00    -0.294 NA
ATOM     13  C   UNL     1      -1.478  -3.401   1.123  0.00  0.00    +0.103 C 
ATOM     14  C   UNL     1      -2.126  -4.703   0.600  0.00  0.00    +0.120 C 
ATOM     15  N   UNL     1      -1.077  -5.644   0.151  0.00  0.00    -0.325 N 
ATOM     16  C   UNL     1      -0.089  -5.058  -0.775  0.00  0.00    +0.120 C 
ATOM     17  C   UNL     1       0.479  -3.744  -0.207  0.00  0.00    +0.103 C 
BRANCH  12  18
ATOM     18  C   UNL     1      -0.283  -1.442   0.198  0.00  0.00    +0.143 C 
BRANCH  18  22
ATOM     19  C   UNL     1      -4.575   0.837  -1.371  0.00  0.00    +0.089 C 
ATOM     20  C   UNL     1      -3.387   0.297  -0.688  0.00  0.00    +0.135 A 
ATOM     21  C   UNL     1      -2.469  -0.666  -1.010  0.00  0.00    +0.072 A 
ATOM     22  C   UNL     1      -1.522  -0.615   0.044  0.00  0.00    +0.098 A 
ATOM     23  N   UNL     1      -1.883   0.277   0.977  0.00  0.00    -0.082 NA
ATOM     24  O   UNL     1      -3.058   0.848   0.511  0.00  0.00    -0.360 OA
ENDBRANCH  18  22
ENDBRANCH  12  18
ENDBRANCH   1  15
BRANCH   9  25
ATOM     25  C   UNL     1       0.651  -9.531  -3.418  0.00  0.00    +0.017 A 
ATOM     26  C   UNL     1       0.334  -8.716  -4.515  0.00  0.00    +0.012 A 
ATOM     27  C   UNL     1       0.781  -9.036  -5.799  0.00  0.00    +0.005 A 
ATOM     28  C   UNL     1       1.555 -10.180  -6.021  0.00  0.00    -0.034 A 
ATOM     29  C   UNL     1       1.883 -10.991  -4.926  0.00  0.00    +0.005 A 
ATOM     30  C   UNL     1       1.435 -10.670  -3.636  0.00  0.00    +0.012 A 
BRANCH  28  31
ATOM     31  C   UNL     1       1.968 -10.549  -7.424  0.00  0.00    +0.113 C 
BRANCH  31  32
ATOM     32  N   UNL     1       3.415 -10.590  -7.582  0.00  0.00    -0.326 NA
ATOM     33  H   UNL     1       3.795  -9.664  -7.395  0.00  0.00    +0.119 HD
ATOM     34  H   UNL     1       3.633 -10.797  -8.556  0.00  0.00    +0.119 HD
ENDBRANCH  31  32
ENDBRANCH  28  31
ENDBRANCH   9  25
TORSDOF 6
