REMARK  Name = L86
REMARK  7 active torsions:
REMARK  status: ('A' for Active; 'I' for Inactive)
REMARK    1  A    between atoms: C_1  and  C_2
REMARK    2  A    between atoms: C_4  and  C_7
REMARK    3  A    between atoms: C_7  and  N_8
REMARK    4  A    between atoms: N_11  and  C_14
REMARK    5  A    between atoms: C_22  and  C_24
REMARK    6  A    between atoms: C_27  and  C_30
REMARK    7  A    between atoms: C_30  and  N_31
REMARK                            x       y       z     vdW  Elec       q    Type
REMARK                         _______ _______ _______ _____ _____    ______ ____
ROOT
ATOM      1  C   UNL     1      -1.020  -6.971   0.549  0.00  0.00    +0.077 A 
ATOM      2  C   UNL     1      -0.591  -7.971  -0.350  0.00  0.00    +0.108 A 
ATOM      3  C   UNL     1      -0.486  -9.316  -0.024  0.00  0.00    +0.180 A 
ATOM      4  N   UNL     1      -0.817  -9.820   1.181  0.00  0.00    -0.233 NA
ATOM      5  C   UNL     1      -1.244  -8.886   2.056  0.00  0.00    +0.135 A 
ATOM      6  C   UNL     1      -1.351  -7.512   1.816  0.00  0.00    +0.082 A 
ATOM      7 CL   UNL     1      -1.762  -6.545   3.196  0.00  0.00    -0.080 Cl
ATOM      8  N   UNL     1       0.008 -10.054  -1.063  0.00  0.00    -0.208 NA
ATOM      9  C   UNL     1       0.171  -9.207  -2.057  0.00  0.00    +0.141 A 
ATOM     10  N   UNL     1      -0.212  -7.949  -1.667  0.00  0.00    -0.335 N 
ATOM     11  H   UNL     1      -0.179  -7.130  -2.251  0.00  0.00    +0.167 HD
ENDROOT
BRANCH   1  15
ATOM     12  N   UNL     1      -0.685  -2.813   0.015  0.00  0.00    -0.294 NA
ATOM     13  C   UNL     1      -1.508  -3.381   1.107  0.00  0.00    +0.103 C 
ATOM     14  C   UNL     1      -2.122  -4.710   0.609  0.00  0.00    +0.120 C 
ATOM     15  N   UNL     1      -1.039  -5.634   0.212  0.00  0.00    -0.325 N 
ATOM     16  C   UNL     1      -0.070  -5.054  -0.738  0.00  0.00    +0.120 C 
ATOM     17  C   UNL     1       0.457  -3.702  -0.217  0.00  0.00    +0.103 C 
BRANCH  12  18
ATOM     18  C   UNL     1      -0.316  -1.416   0.207  0.00  0.00    +0.143 C 
BRANCH  18  22
ATOM     19  C   UNL     1      -4.618   0.833  -1.381  0.00  0.00    +0.089 C 
ATOM     20  C   UNL     1      -3.414   0.318  -0.710  0.00  0.00    +0.135 A 
ATOM     21  C   UNL     1      -2.483  -0.635  -1.029  0.00  0.00    +0.072 A 
ATOM     22  C   UNL     1      -1.547  -0.580   0.036  0.00  0.00    +0.098 A 
ATOM     23  N   UNL     1      -1.913   0.320   0.958  0.00  0.00    -0.082 NA
ATOM     24  O   UNL     1      -3.089   0.881   0.484  0.00  0.00    -0.360 OA
ENDBRANCH  18  22
ENDBRANCH  12  18
ENDBRANCH   1  15
BRANCH   9  25
ATOM     25  C   UNL     1       0.681  -9.517  -3.394  0.00  0.00    +0.017 A 
ATOM     26  C   UNL     1       0.387  -8.720  -4.505  0.00  0.00    +0.012 A 
ATOM     27  C   UNL     1       0.847  -9.069  -5.777  0.00  0.00    +0.006 A 
ATOM     28  C   UNL     1       1.606 -10.232  -5.973  0.00  0.00    -0.026 A 
ATOM     29  C   UNL     1       1.938 -11.007  -4.858  0.00  0.00    +0.006 A 
ATOM     30  C   UNL     1       1.476 -10.665  -3.591  0.00  0.00    +0.012 A 
BRANCH  28  31
ATOM     31  C   UNL     1       2.058 -10.608  -7.358  0.00  0.00    +0.178 C 
BRANCH  31  32
ATOM     32  N   UNL     1       3.339 -10.001  -7.683  0.00  0.00    -0.267 N 
ATOM     33  C   UNL     1       4.572 -10.569  -7.526  0.00  0.00    +0.108 A 
ATOM     34  C   UNL     1       5.481  -9.615  -7.915  0.00  0.00    +0.041 A 
ATOM     35  C   UNL     1       4.698  -8.523  -8.332  0.00  0.00    +0.134 A 
ATOM     36  N   UNL     1       3.389  -8.760  -8.215  0.00  0.00    -0.179 NA
ENDBRANCH  31  32
ENDBRANCH  28  31
ENDBRANCH   9  25
TORSDOF 6
