REMARK  Name = L83
REMARK  4 active torsions:
REMARK  status: ('A' for Active; 'I' for Inactive)
REMARK    1  A    between atoms: C_15  and  C_17
REMARK    2  A    between atoms: N_25  and  C_26
REMARK    3  A    between atoms: C_29  and  C_32
REMARK    4  A    between atoms: C_32  and  O_34
REMARK                            x       y       z     vdW  Elec       q    Type
REMARK                         _______ _______ _______ _____ _____    ______ ____
ROOT
ATOM      1  C   UNL     1      -0.780  -1.848   0.938  0.00  0.00    +0.181 C 
ATOM      2  C   UNL     1      -1.485  -0.636   0.448  0.00  0.00    +0.018 A 
ATOM      3  C   UNL     1      -2.852  -0.552   0.418  0.00  0.00    +0.122 A 
ATOM      4  N   UNL     1      -3.512   0.525  -0.023  0.00  0.00    -0.222 NA
ATOM      5  C   UNL     1      -2.787   1.569  -0.455  0.00  0.00    +0.220 A 
ATOM      6  N   UNL     1      -1.446   1.591  -0.442  0.00  0.00    -0.214 NA
ATOM      7  C   UNL     1      -0.802   0.471  -0.018  0.00  0.00    +0.082 A 
ATOM      8  C   UNL     1       0.677   0.528  -0.018  0.00  0.00    +0.010 A 
ATOM      9  C   UNL     1       1.518  -0.585  -0.287  0.00  0.00    +0.011 A 
ATOM     10  C   UNL     1       2.916  -0.457  -0.177  0.00  0.00    +0.030 A 
ATOM     11  C   UNL     1       3.489   0.770   0.148  0.00  0.00    +0.042 A 
ATOM     12  C   UNL     1       2.689   1.877   0.390  0.00  0.00    +0.020 A 
ATOM     13  C   UNL     1       1.301   1.753   0.312  0.00  0.00    +0.012 A 
ATOM     14 CL   UNL     1       5.200   0.916   0.243  0.00  0.00    -0.084 Cl
ATOM     15  C   UNL     1       0.979  -1.938  -0.679  0.00  0.00    +0.079 C 
ATOM     16  N   UNL     1      -0.051  -2.494  -0.136  0.00  0.00    -0.278 NA
ATOM     17  N   UNL     1      -3.459   2.702  -0.916  0.00  0.00    -0.284 N 
ATOM     18  H   UNL     1      -2.838   3.474  -1.102  0.00  0.00    +0.155 HD
ENDROOT
BRANCH  15  19
ATOM     19  C   UNL     1       1.645  -2.729  -1.767  0.00  0.00    +0.071 A 
ATOM     20  C   UNL     1       1.634  -4.130  -1.720  0.00  0.00    +0.135 A 
ATOM     21  C   UNL     1       2.157  -4.896  -2.764  0.00  0.00    +0.039 A 
ATOM     22  C   UNL     1       2.718  -4.271  -3.874  0.00  0.00    +0.006 A 
ATOM     23  C   UNL     1       2.759  -2.879  -3.927  0.00  0.00    +0.039 A 
ATOM     24  C   UNL     1       2.218  -2.119  -2.885  0.00  0.00    +0.135 A 
ATOM     25  F   UNL     1       2.252  -0.785  -3.007  0.00  0.00    -0.205 F 
ATOM     26  F   UNL     1       1.144  -4.791  -0.661  0.00  0.00    -0.205 F 
ENDBRANCH  15  19
BRANCH  17  27
ATOM     27  C   UNL     1      -4.764   2.770  -1.423  0.00  0.00    +0.034 A 
ATOM     28  C   UNL     1      -5.535   3.925  -1.246  0.00  0.00    +0.024 A 
ATOM     29  C   UNL     1      -6.887   3.943  -1.617  0.00  0.00    +0.017 A 
ATOM     30  C   UNL     1      -7.483   2.807  -2.178  0.00  0.00    +0.059 A 
ATOM     31  C   UNL     1      -6.709   1.672  -2.421  0.00  0.00    +0.017 A 
ATOM     32  C   UNL     1      -5.370   1.658  -2.030  0.00  0.00    +0.024 A 
BRANCH  30  33
ATOM     33  C   UNL     1      -8.926   2.851  -2.521  0.00  0.00    +0.337 C 
ATOM     34  O   UNL     1      -9.498   3.877  -2.835  0.00  0.00    -0.245 OA
BRANCH  33  35
ATOM     35  O   UNL     1      -9.553   1.660  -2.407  0.00  0.00    -0.477 OA
ATOM     36  H   UNL     1      -9.035   0.956  -1.975  0.00  0.00    +0.295 HD
ENDBRANCH  33  35
ENDBRANCH  30  33
ENDBRANCH  17  27
TORSDOF 4
