REMARK  Name = L7
REMARK  4 active torsions:
REMARK  status: ('A' for Active; 'I' for Inactive)
REMARK    1  A    between atoms: C_4  and  C_7
REMARK    2  A    between atoms: N_9  and  C_10
REMARK    3  A    between atoms: C_13  and  N_16
REMARK    4  A    between atoms: N_16  and  C_17
REMARK                            x       y       z     vdW  Elec       q    Type
REMARK                         _______ _______ _______ _____ _____    ______ ____
ROOT
ATOM      1  N   UNL     1      -9.093   0.953  -0.661  0.00  0.00    -0.314 N 
ATOM      2  H   UNL     1      -9.377   1.407  -1.524  0.00  0.00    +0.152 HD
ENDROOT
BRANCH   1   3
ATOM      3  C   UNL     1     -10.146   0.498   0.174  0.00  0.00    +0.044 A 
ATOM      4  C   UNL     1     -11.362   0.059  -0.349  0.00  0.00    +0.046 A 
ATOM      5  C   UNL     1     -11.895   0.270  -1.694  0.00  0.00    -0.000 A 
ATOM      6  C   UNL     1     -12.472   1.458  -2.162  0.00  0.00    +0.009 A 
ATOM      7  C   UNL     1     -13.062   1.490  -3.436  0.00  0.00    +0.001 A 
ATOM      8  C   UNL     1     -13.020   0.370  -4.273  0.00  0.00    +0.001 A 
ATOM      9  C   UNL     1     -12.526  -0.833  -3.784  0.00  0.00    +0.014 A 
ATOM     10  C   UNL     1     -12.070  -0.879  -2.468  0.00  0.00    +0.047 A 
ATOM     11  C   UNL     1     -12.104  -2.153  -1.721  0.00  0.00    +0.258 A 
ATOM     12  O   UNL     1     -11.913  -3.227  -2.281  0.00  0.00    -0.267 OA
ATOM     13  N   UNL     1     -12.489  -2.021  -0.392  0.00  0.00    -0.306 N 
ATOM     14  C   UNL     1     -12.000  -0.947   0.379  0.00  0.00    +0.143 A 
ATOM     15  N   UNL     1     -11.816  -1.194   1.689  0.00  0.00    -0.237 NA
ATOM     16  C   UNL     1     -10.750  -0.589   2.243  0.00  0.00    +0.115 A 
ATOM     17  C   UNL     1      -9.869   0.199   1.520  0.00  0.00    +0.043 A 
ATOM     18  H   UNL     1     -13.448  -2.283  -0.166  0.00  0.00    +0.170 HD
ENDBRANCH   1   3
BRANCH   1  22
ATOM     19  C   UNL     1      -5.050  -0.394  -0.418  0.00  0.00    +0.034 A 
ATOM     20  C   UNL     1      -6.094  -1.195   0.042  0.00  0.00    +0.025 A 
ATOM     21  C   UNL     1      -7.434  -0.794  -0.115  0.00  0.00    +0.025 A 
ATOM     22  C   UNL     1      -7.774   0.423  -0.706  0.00  0.00    +0.031 A 
ATOM     23  C   UNL     1      -6.728   1.191  -1.232  0.00  0.00    +0.025 A 
ATOM     24  C   UNL     1      -5.381   0.796  -1.076  0.00  0.00    +0.025 A 
BRANCH  19  27
ATOM     25  C   UNL     1      -3.174  -1.898   0.284  0.00  0.00    +0.248 C 
ATOM     26  O   UNL     1      -3.854  -2.901   0.571  0.00  0.00    -0.270 OA
ATOM     27  N   UNL     1      -3.680  -0.711  -0.216  0.00  0.00    -0.282 N 
ATOM     28  H   UNL     1      -3.010  -0.029  -0.540  0.00  0.00    +0.155 HD
BRANCH  25  32
ATOM     29  C   UNL     1       1.010  -2.408   0.976  0.00  0.00    +0.000 A 
ATOM     30  C   UNL     1       0.234  -3.444   0.483  0.00  0.00    +0.001 A 
ATOM     31  C   UNL     1      -1.120  -3.247   0.234  0.00  0.00    +0.013 A 
ATOM     32  C   UNL     1      -1.713  -2.002   0.484  0.00  0.00    +0.037 A 
ATOM     33  C   UNL     1      -0.955  -0.974   0.972  0.00  0.00    +0.013 A 
ATOM     34  C   UNL     1       0.408  -1.140   1.223  0.00  0.00    +0.001 A 
ENDBRANCH  25  32
ENDBRANCH  19  27
ENDBRANCH   1  22
TORSDOF 4
