REMARK  Name = L22
REMARK  3 active torsions:
REMARK  status: ('A' for Active; 'I' for Inactive)
REMARK    1  A    between atoms: C_4  and  C_7
REMARK    2  A    between atoms: C_13  and  N_16
REMARK    3  A    between atoms: N_16  and  C_17
REMARK                            x       y       z     vdW  Elec       q    Type
REMARK                         _______ _______ _______ _____ _____    ______ ____
ROOT
ATOM      1  N   UNL     1      -9.130   0.010  -0.828  0.00  0.00    -0.312 N 
ATOM      2  H   UNL     1      -9.534   0.494  -1.623  0.00  0.00    +0.152 HD
ENDROOT
BRANCH   1   3
ATOM      3  C   UNL     1     -10.034  -0.780  -0.062  0.00  0.00    +0.044 A 
ATOM      4  C   UNL     1     -11.079  -1.497  -0.654  0.00  0.00    +0.046 A 
ATOM      5  C   UNL     1     -11.653  -1.342  -1.994  0.00  0.00    -0.000 A 
ATOM      6  C   UNL     1     -12.563  -0.351  -2.382  0.00  0.00    +0.009 A 
ATOM      7  C   UNL     1     -13.174  -0.416  -3.648  0.00  0.00    +0.001 A 
ATOM      8  C   UNL     1     -12.835  -1.424  -4.556  0.00  0.00    +0.001 A 
ATOM      9  C   UNL     1     -11.994  -2.455  -4.155  0.00  0.00    +0.014 A 
ATOM     10  C   UNL     1     -11.515  -2.442  -2.849  0.00  0.00    +0.047 A 
ATOM     11  C   UNL     1     -11.162  -3.715  -2.186  0.00  0.00    +0.258 A 
ATOM     12  O   UNL     1     -10.598  -4.614  -2.797  0.00  0.00    -0.267 OA
ATOM     13  N   UNL     1     -11.606  -3.818  -0.869  0.00  0.00    -0.306 N 
ATOM     14  C   UNL     1     -11.405  -2.700  -0.016  0.00  0.00    +0.143 A 
ATOM     15  N   UNL     1     -11.142  -2.997   1.270  0.00  0.00    -0.237 NA
ATOM     16  C   UNL     1     -10.290  -2.170   1.896  0.00  0.00    +0.115 A 
ATOM     17  C   UNL     1      -9.676  -1.106   1.260  0.00  0.00    +0.043 A 
ATOM     18  H   UNL     1     -12.568  -4.129  -0.793  0.00  0.00    +0.170 HD
ENDBRANCH   1   3
BRANCH   1  25
ATOM     19  C   UNL     1      -2.644   0.333  -0.959  0.00  0.00    +0.250 C 
ATOM     20  O   UNL     1      -2.819   1.282  -1.710  0.00  0.00    -0.270 OA
ATOM     21  N   UNL     1      -3.633  -0.512  -0.469  0.00  0.00    -0.250 N 
ATOM     22  C   UNL     1      -4.992  -0.374  -0.719  0.00  0.00    +0.222 A 
ATOM     23  N   UNL     1      -5.717  -1.392  -0.264  0.00  0.00    -0.221 NA
ATOM     24  C   UNL     1      -7.060  -1.296  -0.395  0.00  0.00    +0.139 A 
ATOM     25  C   UNL     1      -7.736  -0.193  -0.912  0.00  0.00    +0.068 A 
ATOM     26  C   UNL     1      -6.871   0.776  -1.380  0.00  0.00    +0.139 A 
ATOM     27  N   UNL     1      -5.519   0.701  -1.313  0.00  0.00    -0.221 NA
ATOM     28  H   UNL     1      -3.424  -1.293   0.122  0.00  0.00    +0.158 HD
BRANCH  19  32
ATOM     29  C   UNL     1       1.428  -0.405   0.198  0.00  0.00    +0.000 A 
ATOM     30  C   UNL     1       1.009   0.863  -0.197  0.00  0.00    +0.001 A 
ATOM     31  C   UNL     1      -0.322   1.077  -0.554  0.00  0.00    +0.013 A 
ATOM     32  C   UNL     1      -1.252   0.026  -0.516  0.00  0.00    +0.037 A 
ATOM     33  C   UNL     1      -0.825  -1.249  -0.120  0.00  0.00    +0.013 A 
ATOM     34  C   UNL     1       0.515  -1.459   0.240  0.00  0.00    +0.001 A 
ENDBRANCH  19  32
ENDBRANCH   1  25
TORSDOF 3
