REMARK  Name = L14
REMARK  4 active torsions:
REMARK  status: ('A' for Active; 'I' for Inactive)
REMARK    1  A    between atoms: C_8  and  N_16
REMARK    2  A    between atoms: N_16  and  C_17
REMARK    3  A    between atoms: C_20  and  N_23
REMARK    4  A    between atoms: C_24  and  C_26
REMARK                            x       y       z     vdW  Elec       q    Type
REMARK                         _______ _______ _______ _____ _____    ______ ____
ROOT
ATOM      1  N   UNL     1      -1.018  -2.934  -0.095  0.00  0.00    -0.314 N 
ATOM      2  H   UNL     1      -0.703  -2.789  -1.020  0.00  0.00    +0.152 HD
ENDROOT
BRANCH   1  10
ATOM      3  C   UNL     1       2.199  -1.674  -2.649  0.00  0.00    +0.001 A 
ATOM      4  C   UNL     1       3.203  -0.753  -2.570  0.00  0.00    +0.001 A 
ATOM      5  C   UNL     1       3.433  -0.049  -1.368  0.00  0.00    +0.014 A 
ATOM      6  C   UNL     1       2.600  -0.227  -0.245  0.00  0.00    +0.047 A 
ATOM      7  C   UNL     1       1.512  -1.119  -0.312  0.00  0.00    -0.000 A 
ATOM      8  C   UNL     1       1.375  -1.810  -1.550  0.00  0.00    +0.009 A 
ATOM      9  C   UNL     1       0.597  -1.273   0.864  0.00  0.00    +0.046 A 
ATOM     10  C   UNL     1      -0.530  -2.136   0.956  0.00  0.00    +0.044 A 
ATOM     11  C   UNL     1      -1.235  -2.187   2.165  0.00  0.00    +0.043 A 
ATOM     12  C   UNL     1      -0.855  -1.403   3.231  0.00  0.00    +0.115 A 
ATOM     13  N   UNL     1       0.193  -0.565   3.193  0.00  0.00    -0.237 NA
ATOM     14  C   UNL     1       0.894  -0.517   2.028  0.00  0.00    +0.143 A 
ATOM     15  N   UNL     1       1.999   0.347   2.040  0.00  0.00    -0.306 N 
ATOM     16  C   UNL     1       2.858   0.565   0.997  0.00  0.00    +0.258 A 
ATOM     17  O   UNL     1       3.818   1.331   1.098  0.00  0.00    -0.267 OA
ATOM     18  H   UNL     1       2.172   0.851   2.898  0.00  0.00    +0.170 HD
ENDBRANCH   1  10
BRANCH   1  19
ATOM     19  C   UNL     1      -1.681  -4.161  -0.077  0.00  0.00    +0.031 A 
ATOM     20  C   UNL     1      -2.586  -4.477  -1.075  0.00  0.00    +0.025 A 
ATOM     21  C   UNL     1      -3.447  -5.575  -0.916  0.00  0.00    +0.025 A 
ATOM     22  C   UNL     1      -3.286  -6.490   0.144  0.00  0.00    +0.034 A 
ATOM     23  C   UNL     1      -2.195  -6.247   0.998  0.00  0.00    +0.025 A 
ATOM     24  C   UNL     1      -1.448  -5.065   0.947  0.00  0.00    +0.025 A 
BRANCH  22  25
ATOM     25  N   UNL     1      -4.186  -7.639   0.298  0.00  0.00    -0.281 N 
ATOM     26  C   UNL     1      -4.986  -8.166  -0.751  0.00  0.00    +0.251 C 
ATOM     27  O   UNL     1      -4.959  -7.666  -1.881  0.00  0.00    -0.270 OA
ATOM     28  H   UNL     1      -4.153  -8.088   1.209  0.00  0.00    +0.155 HD
BRANCH  26  29
ATOM     29  C   UNL     1      -5.934  -9.374  -0.708  0.00  0.00    +0.075 A 
ATOM     30  C   UNL     1      -6.248 -10.253   0.366  0.00  0.00    +0.170 A 
ATOM     31  C   UNL     1      -5.251 -11.160   0.435  0.00  0.00    +0.159 A 
ATOM     32  C   UNL     1      -5.648 -11.802  -0.750  0.00  0.00    +0.041 A 
ATOM     33  C   UNL     1      -6.511 -11.229  -1.781  0.00  0.00    +0.004 A 
ATOM     34  C   UNL     1      -6.073  -9.973  -1.962  0.00  0.00    +0.016 A 
ATOM     35  F   UNL     1      -7.848 -11.142  -1.466  0.00  0.00    -0.202 F 
ATOM     36  F   UNL     1      -4.913 -10.522   1.561  0.00  0.00    -0.202 F 
ENDBRANCH  26  29
ENDBRANCH  22  25
ENDBRANCH   1  19
TORSDOF 4
