REMARK  Name = L18
REMARK  4 active torsions:
REMARK  status: ('A' for Active; 'I' for Inactive)
REMARK    1  A    between atoms: C_8  and  N_16
REMARK    2  A    between atoms: N_16  and  C_17
REMARK    3  A    between atoms: C_20  and  N_23
REMARK    4  A    between atoms: C_24  and  C_26
REMARK                            x       y       z     vdW  Elec       q    Type
REMARK                         _______ _______ _______ _____ _____    ______ ____
ROOT
ATOM      1  N   UNL     1      -0.959  -2.892  -0.085  0.00  0.00    -0.314 N 
ATOM      2  H   UNL     1      -0.485  -2.728   0.802  0.00  0.00    +0.152 HD
ENDROOT
BRANCH   1  10
ATOM      3  C   UNL     1       3.138  -1.888  -1.019  0.00  0.00    +0.001 A 
ATOM      4  C   UNL     1       3.810  -0.777  -1.509  0.00  0.00    +0.001 A 
ATOM      5  C   UNL     1       3.080   0.339  -1.891  0.00  0.00    +0.014 A 
ATOM      6  C   UNL     1       1.680   0.346  -1.761  0.00  0.00    +0.047 A 
ATOM      7  C   UNL     1       0.962  -0.759  -1.249  0.00  0.00    -0.000 A 
ATOM      8  C   UNL     1       1.738  -1.881  -0.904  0.00  0.00    +0.009 A 
ATOM      9  C   UNL     1      -0.524  -0.660  -1.107  0.00  0.00    +0.046 A 
ATOM     10  C   UNL     1      -1.412  -1.639  -0.598  0.00  0.00    +0.044 A 
ATOM     11  C   UNL     1      -2.782  -1.329  -0.476  0.00  0.00    +0.043 A 
ATOM     12  C   UNL     1      -3.256  -0.116  -0.923  0.00  0.00    +0.115 A 
ATOM     13  N   UNL     1      -2.463   0.823  -1.451  0.00  0.00    -0.237 NA
ATOM     14  C   UNL     1      -1.143   0.537  -1.520  0.00  0.00    +0.143 A 
ATOM     15  N   UNL     1      -0.388   1.577  -2.044  0.00  0.00    -0.306 N 
ATOM     16  C   UNL     1       0.964   1.571  -2.188  0.00  0.00    +0.258 A 
ATOM     17  O   UNL     1       1.560   2.536  -2.653  0.00  0.00    -0.267 OA
ATOM     18  H   UNL     1      -0.897   2.404  -2.322  0.00  0.00    +0.170 HD
ENDBRANCH   1  10
BRANCH   1  19
ATOM     19  C   UNL     1      -1.695  -4.102  -0.049  0.00  0.00    +0.031 A 
ATOM     20  C   UNL     1      -2.617  -4.428  -1.046  0.00  0.00    +0.025 A 
ATOM     21  C   UNL     1      -3.387  -5.590  -0.964  0.00  0.00    +0.025 A 
ATOM     22  C   UNL     1      -3.211  -6.488   0.087  0.00  0.00    +0.034 A 
ATOM     23  C   UNL     1      -2.221  -6.217   1.038  0.00  0.00    +0.025 A 
ATOM     24  C   UNL     1      -1.456  -5.043   0.958  0.00  0.00    +0.025 A 
BRANCH  22  25
ATOM     25  N   UNL     1      -3.995  -7.652   0.250  0.00  0.00    -0.282 N 
ATOM     26  C   UNL     1      -4.886  -8.165  -0.679  0.00  0.00    +0.248 C 
ATOM     27  O   UNL     1      -5.063  -7.755  -1.821  0.00  0.00    -0.270 OA
ATOM     28  H   UNL     1      -3.830  -8.187   1.093  0.00  0.00    +0.155 HD
BRANCH  26  29
ATOM     29  C   UNL     1      -5.664  -9.359  -0.259  0.00  0.00    +0.040 A 
ATOM     30  C   UNL     1      -6.078  -9.561   1.060  0.00  0.00    +0.051 A 
ATOM     31  C   UNL     1      -6.844 -10.683   1.361  0.00  0.00    +0.124 A 
ATOM     32  C   UNL     1      -7.209 -11.600   0.379  0.00  0.00    +0.038 A 
ATOM     33  C   UNL     1      -6.809 -11.393  -0.939  0.00  0.00    +0.004 A 
ATOM     34  C   UNL     1      -6.042 -10.273  -1.256  0.00  0.00    +0.013 A 
ATOM     35  F   UNL     1      -7.249 -10.879   2.622  0.00  0.00    -0.205 F 
ENDBRANCH  26  29
ENDBRANCH  22  25
ENDBRANCH   1  19
TORSDOF 4
