REMARK  Name = L30
REMARK  5 active torsions:
REMARK  status: ('A' for Active; 'I' for Inactive)
REMARK    1  A    between atoms: C_8  and  N_16
REMARK    2  A    between atoms: N_16  and  C_17
REMARK    3  A    between atoms: C_20  and  N_23
REMARK    4  A    between atoms: C_24  and  C_26
REMARK    5  A    between atoms: C_29  and  C_32
REMARK                            x       y       z     vdW  Elec       q    Type
REMARK                         _______ _______ _______ _____ _____    ______ ____
ROOT
ATOM      1  C   UNL     1      -1.672  -4.164  -0.000  0.00  0.00    +0.031 A 
ATOM      2  C   UNL     1      -2.627  -4.402  -0.986  0.00  0.00    +0.025 A 
ATOM      3  C   UNL     1      -3.405  -5.557  -0.940  0.00  0.00    +0.025 A 
ATOM      4  C   UNL     1      -3.232  -6.493   0.081  0.00  0.00    +0.034 A 
ATOM      5  C   UNL     1      -2.217  -6.294   1.017  0.00  0.00    +0.025 A 
ATOM      6  C   UNL     1      -1.424  -5.151   0.962  0.00  0.00    +0.025 A 
ENDROOT
BRANCH   4   7
ATOM      7  N   UNL     1      -4.035  -7.636   0.239  0.00  0.00    -0.281 N 
ATOM      8  C   UNL     1      -5.150  -7.955  -0.504  0.00  0.00    +0.251 C 
ATOM      9  O   UNL     1      -5.596  -7.304  -1.442  0.00  0.00    -0.270 OA
ATOM     10  H   UNL     1      -3.797  -8.243   1.018  0.00  0.00    +0.155 HD
BRANCH   8  11
ATOM     11  C   UNL     1      -5.885  -9.190  -0.131  0.00  0.00    +0.072 A 
ATOM     12  C   UNL     1      -5.512 -10.023   0.922  0.00  0.00    +0.136 A 
ATOM     13  C   UNL     1      -6.226 -11.187   1.201  0.00  0.00    +0.051 A 
ATOM     14  C   UNL     1      -7.336 -11.540   0.419  0.00  0.00    +0.058 A 
ATOM     15  C   UNL     1      -7.728 -10.693  -0.627  0.00  0.00    +0.013 A 
ATOM     16  C   UNL     1      -7.009  -9.531  -0.898  0.00  0.00    +0.016 A 
ATOM     17  F   UNL     1      -4.453  -9.733   1.694  0.00  0.00    -0.205 F 
BRANCH  14  18
ATOM     18  C   UNL     1      -8.105 -12.812   0.671  0.00  0.00    +0.418 C 
ATOM     19  F   UNL     1      -7.599 -13.556   1.691  0.00  0.00    -0.166 F 
ATOM     20  F   UNL     1      -9.407 -12.576   0.984  0.00  0.00    -0.166 F 
ATOM     21  F   UNL     1      -8.119 -13.626  -0.419  0.00  0.00    -0.166 F 
ENDBRANCH  14  18
ENDBRANCH   8  11
ENDBRANCH   4   7
BRANCH   1  22
ATOM     22  N   UNL     1      -0.855  -3.013  -0.111  0.00  0.00    -0.314 N 
ATOM     23  H   UNL     1      -0.061  -3.322  -0.666  0.00  0.00    +0.152 HD
BRANCH  22  31
ATOM     24  C   UNL     1       2.205  -1.381  -2.768  0.00  0.00    +0.001 A 
ATOM     25  C   UNL     1       3.354  -0.625  -2.599  0.00  0.00    +0.001 A 
ATOM     26  C   UNL     1       3.613  -0.066  -1.357  0.00  0.00    +0.014 A 
ATOM     27  C   UNL     1       2.749  -0.311  -0.275  0.00  0.00    +0.047 A 
ATOM     28  C   UNL     1       1.589  -1.109  -0.394  0.00  0.00    -0.000 A 
ATOM     29  C   UNL     1       1.320  -1.581  -1.695  0.00  0.00    +0.009 A 
ATOM     30  C   UNL     1       0.761  -1.369   0.834  0.00  0.00    +0.046 A 
ATOM     31  C   UNL     1      -0.356  -2.229   0.972  0.00  0.00    +0.044 A 
ATOM     32  C   UNL     1      -1.064  -2.254   2.194  0.00  0.00    +0.043 A 
ATOM     33  C   UNL     1      -0.571  -1.581   3.288  0.00  0.00    +0.115 A 
ATOM     34  N   UNL     1       0.532  -0.831   3.233  0.00  0.00    -0.237 NA
ATOM     35  C   UNL     1       1.144  -0.729   2.030  0.00  0.00    +0.143 A 
ATOM     36  N   UNL     1       2.264   0.084   2.066  0.00  0.00    -0.306 N 
ATOM     37  C   UNL     1       3.090   0.331   1.018  0.00  0.00    +0.258 A 
ATOM     38  O   UNL     1       4.072   1.053   1.136  0.00  0.00    -0.267 OA
ATOM     39  H   UNL     1       2.482   0.507   2.956  0.00  0.00    +0.170 HD
ENDBRANCH  22  31
ENDBRANCH   1  22
TORSDOF 5
