REMARK  Name = L6
REMARK  0 active torsions:
REMARK  status: ('A' for Active; 'I' for Inactive)
REMARK                            x       y       z     vdW  Elec       q    Type
REMARK                         _______ _______ _______ _____ _____    ______ ____
ROOT
ATOM      1  C   UNL     1       3.014  -1.466   0.001  0.00  0.00    +0.001 A 
ATOM      2  C   UNL     1       3.623  -0.222   0.001  0.00  0.00    +0.001 A 
ATOM      3  C   UNL     1       2.828   0.916   0.001  0.00  0.00    +0.014 A 
ATOM      4  C   UNL     1       1.426   0.800   0.000  0.00  0.00    +0.047 A 
ATOM      5  C   UNL     1       0.767  -0.453   0.000  0.00  0.00    -0.001 A 
ATOM      6  C   UNL     1       1.615  -1.575   0.000  0.00  0.00    +0.009 A 
ATOM      7  C   UNL     1      -0.729  -0.493  -0.001  0.00  0.00    +0.044 A 
ATOM      8  C   UNL     1      -1.589  -1.612  -0.002  0.00  0.00    +0.054 A 
ATOM      9  C   UNL     1      -2.983  -1.464  -0.002  0.00  0.00    +0.040 A 
ATOM     10  C   UNL     1      -3.515  -0.199  -0.001  0.00  0.00    +0.114 A 
ATOM     11  N   UNL     1      -2.756   0.904   0.000  0.00  0.00    -0.237 NA
ATOM     12  C   UNL     1      -1.413   0.736   0.001  0.00  0.00    +0.143 A 
ATOM     13  N   UNL     1      -0.716   1.935   0.001  0.00  0.00    -0.306 N 
ATOM     14  C   UNL     1       0.640   2.058   0.001  0.00  0.00    +0.258 A 
ATOM     15  O   UNL     1       1.182   3.158   0.001  0.00  0.00    -0.267 OA
ATOM     16 CL   UNL     1      -1.094  -3.272  -0.006  0.00  0.00    -0.083 Cl
ATOM     17  H   UNL     1      -1.268   2.780   0.001  0.00  0.00    +0.170 HD
ENDROOT
TORSDOF 0
