REMARK  Name = L26
REMARK  3 active torsions:
REMARK  status: ('A' for Active; 'I' for Inactive)
REMARK    1  A    between atoms: C_8  and  N_16
REMARK    2  A    between atoms: N_16  and  C_17
REMARK    3  A    between atoms: C_20  and  N_23
REMARK                            x       y       z     vdW  Elec       q    Type
REMARK                         _______ _______ _______ _____ _____    ______ ____
ROOT
ATOM      1  C   UNL     1       3.091  -1.395  -0.045  0.00  0.00    +0.001 A 
ATOM      2  C   UNL     1       3.684  -0.142   0.012  0.00  0.00    +0.001 A 
ATOM      3  C   UNL     1       2.875   0.984   0.023  0.00  0.00    +0.014 A 
ATOM      4  C   UNL     1       1.476   0.851  -0.001  0.00  0.00    +0.047 A 
ATOM      5  C   UNL     1       0.833  -0.409  -0.045  0.00  0.00    -0.000 A 
ATOM      6  C   UNL     1       1.693  -1.524  -0.088  0.00  0.00    +0.009 A 
ATOM      7  C   UNL     1      -0.663  -0.462  -0.042  0.00  0.00    +0.046 A 
ATOM      8  C   UNL     1      -1.492  -1.609  -0.068  0.00  0.00    +0.044 A 
ATOM      9  C   UNL     1      -2.893  -1.453   0.010  0.00  0.00    +0.043 A 
ATOM     10  C   UNL     1      -3.445  -0.192   0.022  0.00  0.00    +0.115 A 
ATOM     11  N   UNL     1      -2.706   0.920   0.002  0.00  0.00    -0.237 NA
ATOM     12  C   UNL     1      -1.363   0.762  -0.017  0.00  0.00    +0.143 A 
ATOM     13  N   UNL     1      -0.677   1.965   0.000  0.00  0.00    -0.306 N 
ATOM     14  C   UNL     1       0.676   2.100   0.012  0.00  0.00    +0.258 A 
ATOM     15  O   UNL     1       1.208   3.205   0.035  0.00  0.00    -0.267 OA
ATOM     16  H   UNL     1      -1.239   2.804   0.011  0.00  0.00    +0.170 HD
ENDROOT
BRANCH   8  17
ATOM     17  N   UNL     1      -0.963  -2.934  -0.060  0.00  0.00    -0.314 N 
ATOM     18  H   UNL     1      -0.566  -3.119   0.861  0.00  0.00    +0.152 HD
BRANCH  17  19
ATOM     19  C   UNL     1      -1.595  -4.095  -0.570  0.00  0.00    +0.031 A 
ATOM     20  C   UNL     1      -2.423  -4.054  -1.699  0.00  0.00    +0.025 A 
ATOM     21  C   UNL     1      -3.106  -5.197  -2.127  0.00  0.00    +0.024 A 
ATOM     22  C   UNL     1      -2.957  -6.404  -1.449  0.00  0.00    +0.025 A 
ATOM     23  C   UNL     1      -1.998  -6.486  -0.440  0.00  0.00    +0.024 A 
ATOM     24  C   UNL     1      -1.329  -5.340   0.005  0.00  0.00    +0.025 A 
BRANCH  22  25
ATOM     25  N   UNL     1      -3.590  -7.560  -1.919  0.00  0.00    -0.358 N 
ATOM     26  H   UNL     1      -4.476  -7.372  -2.379  0.00  0.00    +0.142 HD
ATOM     27  H   UNL     1      -3.675  -8.288  -1.217  0.00  0.00    +0.142 HD
ENDBRANCH  22  25
ENDBRANCH  17  19
ENDBRANCH   8  17
TORSDOF 3
