REMARK  Name = L21
REMARK  6 active torsions:
REMARK  status: ('A' for Active; 'I' for Inactive)
REMARK    1  A    between atoms: C_1  and  O_2
REMARK    2  A    between atoms: O_2  and  C_3
REMARK    3  A    between atoms: C_8  and  C_9
REMARK    4  A    between atoms: N_11  and  C_12
REMARK    5  A    between atoms: C_15  and  N_18
REMARK    6  A    between atoms: N_18  and  C_19
REMARK                            x       y       z     vdW  Elec       q    Type
REMARK                         _______ _______ _______ _____ _____    ______ ____
ROOT
ATOM      1  C   UNL     1      -0.459  -1.304   1.973  0.00  0.00    +0.034 A 
ATOM      2  C   UNL     1      -1.006  -2.355   1.249  0.00  0.00    +0.025 A 
ATOM      3  C   UNL     1      -2.319  -2.757   1.499  0.00  0.00    +0.025 A 
ATOM      4  C   UNL     1      -3.070  -2.193   2.546  0.00  0.00    +0.031 A 
ATOM      5  C   UNL     1      -2.536  -1.087   3.210  0.00  0.00    +0.025 A 
ATOM      6  C   UNL     1      -1.245  -0.633   2.914  0.00  0.00    +0.025 A 
ENDROOT
BRANCH   1   9
ATOM      7  C   UNL     1       1.415   0.284   1.778  0.00  0.00    +0.252 C 
ATOM      8  O   UNL     1       0.719   1.291   1.839  0.00  0.00    -0.270 OA
ATOM      9  N   UNL     1       0.899  -0.996   1.771  0.00  0.00    -0.281 N 
ATOM     10  H   UNL     1       1.517  -1.744   1.484  0.00  0.00    +0.155 HD
BRANCH   7  16
ATOM     11  C   UNL     1       3.848  -0.602   1.776  0.00  0.00    +0.132 A 
ATOM     12  C   UNL     1       5.212  -0.282   1.682  0.00  0.00    +0.046 A 
ATOM     13  C   UNL     1       5.632   1.013   1.399  0.00  0.00    +0.004 A 
ATOM     14  C   UNL     1       4.701   2.022   1.213  0.00  0.00    +0.001 A 
ATOM     15  C   UNL     1       3.341   1.728   1.326  0.00  0.00    +0.017 A 
ATOM     16  C   UNL     1       2.900   0.431   1.625  0.00  0.00    +0.079 A 
BRANCH  11  18
ATOM     17  C   UNL     1       4.326  -2.945   1.853  0.00  0.00    +0.277 C 
ATOM     18  O   UNL     1       3.393  -1.877   2.024  0.00  0.00    -0.494 OA
ENDBRANCH  11  18
ENDBRANCH   7  16
ENDBRANCH   1   9
BRANCH   4  19
ATOM     19  N   UNL     1      -4.241  -2.808   3.055  0.00  0.00    -0.314 N 
ATOM     20  H   UNL     1      -4.963  -2.157   3.344  0.00  0.00    +0.152 HD
BRANCH  19  21
ATOM     21  C   UNL     1      -4.650  -4.141   2.830  0.00  0.00    +0.044 A 
ATOM     22  C   UNL     1      -5.909  -4.432   2.312  0.00  0.00    +0.046 A 
ATOM     23  C   UNL     1      -7.044  -3.514   2.238  0.00  0.00    -0.000 A 
ATOM     24  C   UNL     1      -7.846  -3.122   3.315  0.00  0.00    +0.009 A 
ATOM     25  C   UNL     1      -8.944  -2.267   3.090  0.00  0.00    +0.001 A 
ATOM     26  C   UNL     1      -9.217  -1.788   1.805  0.00  0.00    +0.001 A 
ATOM     27  C   UNL     1      -8.477  -2.256   0.725  0.00  0.00    +0.014 A 
ATOM     28  C   UNL     1      -7.461  -3.177   0.950  0.00  0.00    +0.047 A 
ATOM     29  C   UNL     1      -7.020  -4.084  -0.136  0.00  0.00    +0.258 A 
ATOM     30  O   UNL     1      -7.031  -3.722  -1.305  0.00  0.00    -0.267 OA
ATOM     31  N   UNL     1      -6.696  -5.372   0.285  0.00  0.00    -0.306 N 
ATOM     32  C   UNL     1      -5.977  -5.554   1.486  0.00  0.00    +0.143 A 
ATOM     33  N   UNL     1      -5.114  -6.589   1.510  0.00  0.00    -0.237 NA
ATOM     34  C   UNL     1      -3.981  -6.376   2.204  0.00  0.00    +0.115 A 
ATOM     35  C   UNL     1      -3.688  -5.170   2.817  0.00  0.00    +0.043 A 
ATOM     36  H   UNL     1      -7.399  -6.079   0.126  0.00  0.00    +0.170 HD
ENDBRANCH  19  21
ENDBRANCH   4  19
TORSDOF 5
