REMARK  Name = L11
REMARK  4 active torsions:
REMARK  status: ('A' for Active; 'I' for Inactive)
REMARK    1  A    between atoms: C_8  and  N_16
REMARK    2  A    between atoms: N_16  and  C_17
REMARK    3  A    between atoms: C_20  and  N_23
REMARK    4  A    between atoms: C_24  and  C_26
REMARK                            x       y       z     vdW  Elec       q    Type
REMARK                         _______ _______ _______ _____ _____    ______ ____
ROOT
ATOM      1  N   UNL     1      -0.920  -2.899  -0.102  0.00  0.00    -0.314 N 
ATOM      2  H   UNL     1      -0.446  -2.736   0.785  0.00  0.00    +0.152 HD
ENDROOT
BRANCH   1  10
ATOM      3  C   UNL     1       3.168  -1.875  -1.071  0.00  0.00    +0.001 A 
ATOM      4  C   UNL     1       3.830  -0.753  -1.551  0.00  0.00    +0.001 A 
ATOM      5  C   UNL     1       3.090   0.361  -1.918  0.00  0.00    +0.014 A 
ATOM      6  C   UNL     1       1.690   0.356  -1.781  0.00  0.00    +0.047 A 
ATOM      7  C   UNL     1       0.983  -0.757  -1.276  0.00  0.00    -0.000 A 
ATOM      8  C   UNL     1       1.768  -1.880  -0.950  0.00  0.00    +0.009 A 
ATOM      9  C   UNL     1      -0.503  -0.664  -1.120  0.00  0.00    +0.046 A 
ATOM     10  C   UNL     1      -1.382  -1.645  -0.604  0.00  0.00    +0.044 A 
ATOM     11  C   UNL     1      -2.752  -1.339  -0.462  0.00  0.00    +0.043 A 
ATOM     12  C   UNL     1      -3.235  -0.125  -0.898  0.00  0.00    +0.115 A 
ATOM     13  N   UNL     1      -2.450   0.816  -1.432  0.00  0.00    -0.237 NA
ATOM     14  C   UNL     1      -1.131   0.534  -1.518  0.00  0.00    +0.143 A 
ATOM     15  N   UNL     1      -0.388   1.579  -2.041  0.00  0.00    -0.306 N 
ATOM     16  C   UNL     1       0.964   1.583  -2.199  0.00  0.00    +0.258 A 
ATOM     17  O   UNL     1       1.552   2.553  -2.655  0.00  0.00    -0.267 OA
ATOM     18  H   UNL     1      -0.899   2.406  -2.308  0.00  0.00    +0.170 HD
ENDBRANCH   1  10
BRANCH   1  19
ATOM     19  C   UNL     1      -1.662  -4.104  -0.060  0.00  0.00    +0.031 A 
ATOM     20  C   UNL     1      -2.590  -4.425  -1.054  0.00  0.00    +0.025 A 
ATOM     21  C   UNL     1      -3.376  -5.573  -0.955  0.00  0.00    +0.025 A 
ATOM     22  C   UNL     1      -3.208  -6.462   0.106  0.00  0.00    +0.034 A 
ATOM     23  C   UNL     1      -2.213  -6.198   1.051  0.00  0.00    +0.025 A 
ATOM     24  C   UNL     1      -1.431  -5.039   0.954  0.00  0.00    +0.025 A 
BRANCH  22  25
ATOM     25  N   UNL     1      -4.022  -7.601   0.291  0.00  0.00    -0.282 N 
ATOM     26  C   UNL     1      -4.893  -8.112  -0.653  0.00  0.00    +0.248 C 
ATOM     27  O   UNL     1      -4.967  -7.771  -1.829  0.00  0.00    -0.270 OA
ATOM     28  H   UNL     1      -3.904  -8.104   1.160  0.00  0.00    +0.155 HD
BRANCH  26  29
ATOM     29  C   UNL     1      -5.820  -9.180  -0.208  0.00  0.00    +0.040 A 
ATOM     30  C   UNL     1      -6.317  -9.251   1.096  0.00  0.00    +0.054 A 
ATOM     31  C   UNL     1      -7.337 -10.156   1.379  0.00  0.00    +0.159 A 
ATOM     32  C   UNL     1      -7.859 -10.992   0.400  0.00  0.00    +0.158 A 
ATOM     33  C   UNL     1      -7.322 -10.945  -0.877  0.00  0.00    +0.042 A 
ATOM     34  C   UNL     1      -6.311 -10.051  -1.192  0.00  0.00    +0.016 A 
ATOM     35  F   UNL     1      -7.800 -11.757  -1.827  0.00  0.00    -0.202 F 
ATOM     36  F   UNL     1      -7.847 -10.198   2.617  0.00  0.00    -0.202 F 
ENDBRANCH  26  29
ENDBRANCH  22  25
ENDBRANCH   1  19
TORSDOF 4
