REMARK  Name = L4
REMARK  2 active torsions:
REMARK  status: ('A' for Active; 'I' for Inactive)
REMARK    1  A    between atoms: C_4  and  N_7
REMARK    2  A    between atoms: N_7  and  C_8
REMARK                            x       y       z     vdW  Elec       q    Type
REMARK                         _______ _______ _______ _____ _____    ______ ____
ROOT
ATOM      1  C   UNL     1      -3.374  -1.039  -0.653  0.00  0.00    +0.044 A 
ATOM      2  C   UNL     1      -3.704  -1.633   0.569  0.00  0.00    +0.046 A 
ATOM      3  C   UNL     1      -2.954  -1.547   1.819  0.00  0.00    -0.000 A 
ATOM      4  C   UNL     1      -1.724  -2.160   2.084  0.00  0.00    +0.009 A 
ATOM      5  C   UNL     1      -1.156  -2.054   3.364  0.00  0.00    +0.001 A 
ATOM      6  C   UNL     1      -1.773  -1.286   4.357  0.00  0.00    +0.001 A 
ATOM      7  C   UNL     1      -3.031  -0.743   4.126  0.00  0.00    +0.014 A 
ATOM      8  C   UNL     1      -3.639  -0.979   2.894  0.00  0.00    +0.047 A 
ATOM      9  C   UNL     1      -5.116  -0.973   2.803  0.00  0.00    +0.258 A 
ATOM     10  O   UNL     1      -5.798  -0.251   3.514  0.00  0.00    -0.267 OA
ATOM     11  N   UNL     1      -5.624  -1.911   1.915  0.00  0.00    -0.306 N 
ATOM     12  C   UNL     1      -4.997  -2.149   0.680  0.00  0.00    +0.143 A 
ATOM     13  N   UNL     1      -5.792  -2.485  -0.353  0.00  0.00    -0.237 NA
ATOM     14  C   UNL     1      -5.388  -2.029  -1.553  0.00  0.00    +0.115 A 
ATOM     15  C   UNL     1      -4.254  -1.244  -1.727  0.00  0.00    +0.043 A 
ATOM     16  H   UNL     1      -6.149  -2.683   2.293  0.00  0.00    +0.170 HD
ENDROOT
BRANCH   1  17
ATOM     17  N   UNL     1      -2.361  -0.058  -0.711  0.00  0.00    -0.314 N 
ATOM     18  H   UNL     1      -1.796   0.045   0.122  0.00  0.00    +0.152 HD
BRANCH  17  22
ATOM     19  C   UNL     1      -0.570   1.632  -4.110  0.00  0.00    +0.000 A 
ATOM     20  C   UNL     1      -0.903   2.439  -3.030  0.00  0.00    +0.002 A 
ATOM     21  C   UNL     1      -1.483   1.872  -1.893  0.00  0.00    +0.023 A 
ATOM     22  C   UNL     1      -1.770   0.498  -1.846  0.00  0.00    +0.031 A 
ATOM     23  C   UNL     1      -1.399  -0.296  -2.946  0.00  0.00    +0.023 A 
ATOM     24  C   UNL     1      -0.821   0.256  -4.082  0.00  0.00    +0.002 A 
ENDBRANCH  17  22
ENDBRANCH   1  17
TORSDOF 2
