REMARK  Name = L25
REMARK  4 active torsions:
REMARK  status: ('A' for Active; 'I' for Inactive)
REMARK    1  A    between atoms: C_1  and  N_2
REMARK    2  A    between atoms: N_2  and  C_3
REMARK    3  A    between atoms: C_6  and  N_9
REMARK    4  A    between atoms: N_9  and  C_10
REMARK                            x       y       z     vdW  Elec       q    Type
REMARK                         _______ _______ _______ _____ _____    ______ ____
ROOT
ATOM      1  C   UNL     1       4.432   2.264   5.556  0.00  0.00    +0.044 A 
ATOM      2  C   UNL     1       4.698   1.002   6.085  0.00  0.00    +0.046 A 
ATOM      3  C   UNL     1       4.970  -0.243   5.361  0.00  0.00    -0.000 A 
ATOM      4  C   UNL     1       4.019  -0.992   4.654  0.00  0.00    +0.009 A 
ATOM      5  C   UNL     1       4.372  -2.240   4.116  0.00  0.00    +0.001 A 
ATOM      6  C   UNL     1       5.683  -2.717   4.221  0.00  0.00    +0.001 A 
ATOM      7  C   UNL     1       6.610  -2.020   4.986  0.00  0.00    +0.014 A 
ATOM      8  C   UNL     1       6.200  -0.851   5.619  0.00  0.00    +0.047 A 
ATOM      9  C   UNL     1       6.887  -0.420   6.862  0.00  0.00    +0.258 A 
ATOM     10  O   UNL     1       8.083  -0.617   7.024  0.00  0.00    -0.267 OA
ATOM     11  N   UNL     1       6.040   0.108   7.826  0.00  0.00    -0.306 N 
ATOM     12  C   UNL     1       4.988   0.969   7.447  0.00  0.00    +0.143 A 
ATOM     13  N   UNL     1       4.637   1.908   8.349  0.00  0.00    -0.237 NA
ATOM     14  C   UNL     1       4.172   3.068   7.816  0.00  0.00    +0.115 A 
ATOM     15  C   UNL     1       4.125   3.300   6.452  0.00  0.00    +0.043 A 
ATOM     16  H   UNL     1       5.805  -0.505   8.592  0.00  0.00    +0.170 HD
ENDROOT
BRANCH   1  17
ATOM     17  N   UNL     1       4.734   2.586   4.210  0.00  0.00    -0.314 N 
ATOM     18  H   UNL     1       4.664   1.821   3.546  0.00  0.00    +0.152 HD
BRANCH  17  22
ATOM     19  C   UNL     1       6.825   6.043   2.865  0.00  0.00    +0.027 A 
ATOM     20  C   UNL     1       7.004   5.579   4.167  0.00  0.00    +0.025 A 
ATOM     21  C   UNL     1       6.392   4.393   4.595  0.00  0.00    +0.025 A 
ATOM     22  C   UNL     1       5.541   3.662   3.753  0.00  0.00    +0.031 A 
ATOM     23  C   UNL     1       5.393   4.117   2.442  0.00  0.00    +0.025 A 
ATOM     24  C   UNL     1       6.018   5.301   2.015  0.00  0.00    +0.025 A 
BRANCH  19  26
ATOM     25  C   UNL     1       7.675   7.573   1.129  0.00  0.00    +0.125 C 
ATOM     26  N   UNL     1       7.349   7.310   2.522  0.00  0.00    -0.347 N 
ATOM     27  H   UNL     1       8.080   7.608   3.164  0.00  0.00    +0.146 HD
ENDBRANCH  19  26
ENDBRANCH  17  22
ENDBRANCH   1  17
TORSDOF 3
