REMARK  Name = L15
REMARK  5 active torsions:
REMARK  status: ('A' for Active; 'I' for Inactive)
REMARK    1  A    between atoms: C_8  and  N_16
REMARK    2  A    between atoms: N_16  and  C_17
REMARK    3  A    between atoms: C_20  and  N_23
REMARK    4  A    between atoms: C_24  and  C_26
REMARK    5  A    between atoms: C_29  and  C_32
REMARK                            x       y       z     vdW  Elec       q    Type
REMARK                         _______ _______ _______ _____ _____    ______ ____
ROOT
ATOM      1  C   UNL     1      -1.683  -4.099  -0.060  0.00  0.00    +0.031 A 
ATOM      2  C   UNL     1      -2.608  -4.420  -1.055  0.00  0.00    +0.025 A 
ATOM      3  C   UNL     1      -3.383  -5.574  -0.965  0.00  0.00    +0.025 A 
ATOM      4  C   UNL     1      -3.209  -6.471   0.087  0.00  0.00    +0.034 A 
ATOM      5  C   UNL     1      -2.186  -6.228   1.009  0.00  0.00    +0.025 A 
ATOM      6  C   UNL     1      -1.423  -5.053   0.929  0.00  0.00    +0.025 A 
ENDROOT
BRANCH   4   7
ATOM      7  N   UNL     1      -4.023  -7.611   0.265  0.00  0.00    -0.282 N 
ATOM      8  C   UNL     1      -5.154  -7.917  -0.474  0.00  0.00    +0.248 C 
ATOM      9  O   UNL     1      -5.626  -7.265  -1.401  0.00  0.00    -0.270 OA
ATOM     10  H   UNL     1      -3.748  -8.242   1.007  0.00  0.00    +0.155 HD
BRANCH   8  11
ATOM     11  C   UNL     1      -5.857  -9.174  -0.120  0.00  0.00    +0.037 A 
ATOM     12  C   UNL     1      -5.922  -9.663   1.187  0.00  0.00    +0.013 A 
ATOM     13  C   UNL     1      -6.603 -10.856   1.444  0.00  0.00    +0.013 A 
ATOM     14  C   UNL     1      -7.229 -11.564   0.404  0.00  0.00    +0.055 A 
ATOM     15  C   UNL     1      -7.195 -11.041  -0.896  0.00  0.00    +0.013 A 
ATOM     16  C   UNL     1      -6.514  -9.854  -1.155  0.00  0.00    +0.013 A 
BRANCH  14  17
ATOM     17  C   UNL     1      -7.927 -12.877   0.661  0.00  0.00    +0.417 C 
ATOM     18  F   UNL     1      -7.851 -13.285   1.958  0.00  0.00    -0.166 F 
ATOM     19  F   UNL     1      -9.252 -12.836   0.356  0.00  0.00    -0.166 F 
ATOM     20  F   UNL     1      -7.401 -13.891  -0.081  0.00  0.00    -0.166 F 
ENDBRANCH  14  17
ENDBRANCH   8  11
ENDBRANCH   4   7
BRANCH   1  21
ATOM     21  N   UNL     1      -0.959  -2.884  -0.088  0.00  0.00    -0.314 N 
ATOM     22  H   UNL     1      -0.507  -2.711   0.808  0.00  0.00    +0.152 HD
BRANCH  21  30
ATOM     23  C   UNL     1       3.130  -1.893  -1.016  0.00  0.00    +0.001 A 
ATOM     24  C   UNL     1       3.803  -0.788  -1.518  0.00  0.00    +0.001 A 
ATOM     25  C   UNL     1       3.073   0.324  -1.911  0.00  0.00    +0.014 A 
ATOM     26  C   UNL     1       1.673   0.335  -1.782  0.00  0.00    +0.047 A 
ATOM     27  C   UNL     1       0.955  -0.765  -1.259  0.00  0.00    -0.000 A 
ATOM     28  C   UNL     1       1.731  -1.885  -0.904  0.00  0.00    +0.009 A 
ATOM     29  C   UNL     1      -0.531  -0.662  -1.122  0.00  0.00    +0.046 A 
ATOM     30  C   UNL     1      -1.419  -1.638  -0.611  0.00  0.00    +0.044 A 
ATOM     31  C   UNL     1      -2.791  -1.331  -0.494  0.00  0.00    +0.043 A 
ATOM     32  C   UNL     1      -3.265  -0.121  -0.948  0.00  0.00    +0.115 A 
ATOM     33  N   UNL     1      -2.470   0.816  -1.477  0.00  0.00    -0.237 NA
ATOM     34  C   UNL     1      -1.150   0.531  -1.542  0.00  0.00    +0.143 A 
ATOM     35  N   UNL     1      -0.396   1.566  -2.071  0.00  0.00    -0.306 N 
ATOM     36  C   UNL     1       0.956   1.556  -2.220  0.00  0.00    +0.258 A 
ATOM     37  O   UNL     1       1.553   2.517  -2.691  0.00  0.00    -0.267 OA
ATOM     38  H   UNL     1      -0.901   2.393  -2.356  0.00  0.00    +0.170 HD
ENDBRANCH  21  30
ENDBRANCH   1  21
TORSDOF 5
