REMARK  Name = L19
REMARK  5 active torsions:
REMARK  status: ('A' for Active; 'I' for Inactive)
REMARK    1  A    between atoms: C_8  and  N_16
REMARK    2  A    between atoms: N_16  and  C_17
REMARK    3  A    between atoms: C_20  and  N_23
REMARK    4  A    between atoms: C_24  and  C_26
REMARK    5  A    between atoms: C_31  and  C_32
REMARK                            x       y       z     vdW  Elec       q    Type
REMARK                         _______ _______ _______ _____ _____    ______ ____
ROOT
ATOM      1  C   UNL     1      -1.676  -4.089  -0.044  0.00  0.00    +0.031 A 
ATOM      2  C   UNL     1      -2.587  -4.410  -1.054  0.00  0.00    +0.025 A 
ATOM      3  C   UNL     1      -3.361  -5.569  -0.986  0.00  0.00    +0.025 A 
ATOM      4  C   UNL     1      -3.200  -6.471   0.063  0.00  0.00    +0.034 A 
ATOM      5  C   UNL     1      -2.214  -6.211   1.020  0.00  0.00    +0.025 A 
ATOM      6  C   UNL     1      -1.448  -5.037   0.959  0.00  0.00    +0.025 A 
ENDROOT
BRANCH   4   7
ATOM      7  N   UNL     1      -3.995  -7.628   0.214  0.00  0.00    -0.281 N 
ATOM      8  C   UNL     1      -5.028  -8.025  -0.618  0.00  0.00    +0.249 C 
ATOM      9  O   UNL     1      -5.415  -7.475  -1.644  0.00  0.00    -0.270 OA
ATOM     10  H   UNL     1      -3.794  -8.202   1.023  0.00  0.00    +0.155 HD
BRANCH   8  11
ATOM     11  C   UNL     1      -5.790  -9.216  -0.187  0.00  0.00    +0.049 A 
ATOM     12  C   UNL     1      -6.225  -9.268   1.149  0.00  0.00    +0.013 A 
ATOM     13  C   UNL     1      -7.098 -10.272   1.569  0.00  0.00    +0.001 A 
ATOM     14  C   UNL     1      -7.561 -11.215   0.654  0.00  0.00    +0.001 A 
ATOM     15  C   UNL     1      -7.126 -11.170  -0.669  0.00  0.00    +0.013 A 
ATOM     16  C   UNL     1      -6.215 -10.187  -1.109  0.00  0.00    +0.067 A 
BRANCH  16  17
ATOM     17  C   UNL     1      -5.763 -10.256  -2.552  0.00  0.00    +0.418 C 
ATOM     18  F   UNL     1      -4.677  -9.517  -2.885  0.00  0.00    -0.166 F 
ATOM     19  F   UNL     1      -5.408 -11.538  -2.878  0.00  0.00    -0.166 F 
ATOM     20  F   UNL     1      -6.755  -9.933  -3.428  0.00  0.00    -0.166 F 
ENDBRANCH  16  17
ENDBRANCH   8  11
ENDBRANCH   4   7
BRANCH   1  21
ATOM     21  N   UNL     1      -0.947  -2.876  -0.064  0.00  0.00    -0.314 N 
ATOM     22  H   UNL     1      -0.477  -2.713   0.825  0.00  0.00    +0.152 HD
BRANCH  21  30
ATOM     23  C   UNL     1       3.140  -1.881  -1.019  0.00  0.00    +0.001 A 
ATOM     24  C   UNL     1       3.811  -0.768  -1.504  0.00  0.00    +0.001 A 
ATOM     25  C   UNL     1       3.081   0.352  -1.878  0.00  0.00    +0.014 A 
ATOM     26  C   UNL     1       1.681   0.358  -1.748  0.00  0.00    +0.047 A 
ATOM     27  C   UNL     1       0.965  -0.749  -1.239  0.00  0.00    -0.000 A 
ATOM     28  C   UNL     1       1.741  -1.874  -0.902  0.00  0.00    +0.009 A 
ATOM     29  C   UNL     1      -0.520  -0.650  -1.094  0.00  0.00    +0.046 A 
ATOM     30  C   UNL     1      -1.404  -1.628  -0.579  0.00  0.00    +0.044 A 
ATOM     31  C   UNL     1      -2.777  -1.323  -0.463  0.00  0.00    +0.043 A 
ATOM     32  C   UNL     1      -3.254  -0.114  -0.917  0.00  0.00    +0.115 A 
ATOM     33  N   UNL     1      -2.463   0.826  -1.444  0.00  0.00    -0.237 NA
ATOM     34  C   UNL     1      -1.143   0.544  -1.510  0.00  0.00    +0.143 A 
ATOM     35  N   UNL     1      -0.392   1.584  -2.034  0.00  0.00    -0.306 N 
ATOM     36  C   UNL     1       0.960   1.583  -2.174  0.00  0.00    +0.258 A 
ATOM     37  O   UNL     1       1.557   2.551  -2.633  0.00  0.00    -0.267 OA
ATOM     38  H   UNL     1      -0.901   2.410  -2.315  0.00  0.00    +0.170 HD
ENDBRANCH  21  30
ENDBRANCH   1  21
TORSDOF 5
