REMARK  Name = L16
REMARK  4 active torsions:
REMARK  status: ('A' for Active; 'I' for Inactive)
REMARK    1  A    between atoms: C_8  and  N_16
REMARK    2  A    between atoms: N_16  and  C_17
REMARK    3  A    between atoms: C_20  and  N_23
REMARK    4  A    between atoms: C_24  and  C_26
REMARK                            x       y       z     vdW  Elec       q    Type
REMARK                         _______ _______ _______ _____ _____    ______ ____
ROOT
ATOM      1  N   UNL     1      -0.905  -2.994  -0.119  0.00  0.00    -0.314 N 
ATOM      2  H   UNL     1      -0.134  -3.283  -0.709  0.00  0.00    +0.152 HD
ENDROOT
BRANCH   1  10
ATOM      3  C   UNL     1       2.226  -1.417  -2.764  0.00  0.00    +0.001 A 
ATOM      4  C   UNL     1       3.359  -0.641  -2.596  0.00  0.00    +0.001 A 
ATOM      5  C   UNL     1       3.600  -0.068  -1.357  0.00  0.00    +0.014 A 
ATOM      6  C   UNL     1       2.730  -0.314  -0.277  0.00  0.00    +0.047 A 
ATOM      7  C   UNL     1       1.579  -1.127  -0.396  0.00  0.00    -0.000 A 
ATOM      8  C   UNL     1       1.336  -1.620  -1.695  0.00  0.00    +0.009 A 
ATOM      9  C   UNL     1       0.748  -1.381   0.829  0.00  0.00    +0.046 A 
ATOM     10  C   UNL     1      -0.378  -2.234   0.968  0.00  0.00    +0.044 A 
ATOM     11  C   UNL     1      -1.072  -2.268   2.200  0.00  0.00    +0.043 A 
ATOM     12  C   UNL     1      -0.574  -1.602   3.295  0.00  0.00    +0.115 A 
ATOM     13  N   UNL     1       0.525  -0.847   3.234  0.00  0.00    -0.237 NA
ATOM     14  C   UNL     1       1.129  -0.743   2.028  0.00  0.00    +0.143 A 
ATOM     15  N   UNL     1       2.242   0.080   2.063  0.00  0.00    -0.306 N 
ATOM     16  C   UNL     1       3.062   0.334   1.012  0.00  0.00    +0.258 A 
ATOM     17  O   UNL     1       4.038   1.069   1.130  0.00  0.00    -0.267 OA
ATOM     18  H   UNL     1       2.459   0.507   2.952  0.00  0.00    +0.170 HD
ENDBRANCH   1  10
BRANCH   1  19
ATOM     19  C   UNL     1      -1.704  -4.154  -0.009  0.00  0.00    +0.031 A 
ATOM     20  C   UNL     1      -2.652  -4.419  -0.994  0.00  0.00    +0.025 A 
ATOM     21  C   UNL     1      -3.422  -5.579  -0.932  0.00  0.00    +0.025 A 
ATOM     22  C   UNL     1      -3.234  -6.501   0.101  0.00  0.00    +0.034 A 
ATOM     23  C   UNL     1      -2.229  -6.275   1.044  0.00  0.00    +0.025 A 
ATOM     24  C   UNL     1      -1.447  -5.128   0.963  0.00  0.00    +0.025 A 
BRANCH  22  25
ATOM     25  N   UNL     1      -4.022  -7.652   0.262  0.00  0.00    -0.282 N 
ATOM     26  C   UNL     1      -4.901  -8.163  -0.669  0.00  0.00    +0.248 C 
ATOM     27  O   UNL     1      -5.064  -7.756  -1.813  0.00  0.00    -0.270 OA
ATOM     28  H   UNL     1      -3.866  -8.187   1.109  0.00  0.00    +0.155 HD
BRANCH  26  29
ATOM     29  C   UNL     1      -5.676  -9.359  -0.249  0.00  0.00    +0.037 A 
ATOM     30  C   UNL     1      -6.096  -9.559   1.070  0.00  0.00    +0.016 A 
ATOM     31  C   UNL     1      -6.852 -10.691   1.383  0.00  0.00    +0.039 A 
ATOM     32  C   UNL     1      -7.192 -11.595   0.377  0.00  0.00    +0.123 A 
ATOM     33  C   UNL     1      -6.796 -11.390  -0.938  0.00  0.00    +0.039 A 
ATOM     34  C   UNL     1      -6.040 -10.264  -1.255  0.00  0.00    +0.016 A 
ATOM     35  F   UNL     1      -7.924 -12.672   0.683  0.00  0.00    -0.205 F 
ENDBRANCH  26  29
ENDBRANCH  22  25
ENDBRANCH   1  19
TORSDOF 4
