REMARK  Name = L10
REMARK  4 active torsions:
REMARK  status: ('A' for Active; 'I' for Inactive)
REMARK    1  A    between atoms: C_8  and  N_16
REMARK    2  A    between atoms: N_16  and  C_17
REMARK    3  A    between atoms: C_20  and  N_23
REMARK    4  A    between atoms: C_24  and  C_26
REMARK                            x       y       z     vdW  Elec       q    Type
REMARK                         _______ _______ _______ _____ _____    ______ ____
ROOT
ATOM      1  N   UNL     1      -0.961  -2.903  -0.112  0.00  0.00    -0.314 N 
ATOM      2  H   UNL     1      -0.518  -2.744   0.792  0.00  0.00    +0.152 HD
ENDROOT
BRANCH   1  10
ATOM      3  C   UNL     1       3.144  -1.879  -0.998  0.00  0.00    +0.001 A 
ATOM      4  C   UNL     1       3.810  -0.765  -1.488  0.00  0.00    +0.001 A 
ATOM      5  C   UNL     1       3.073   0.347  -1.868  0.00  0.00    +0.014 A 
ATOM      6  C   UNL     1       1.673   0.347  -1.734  0.00  0.00    +0.047 A 
ATOM      7  C   UNL     1       0.957  -0.763  -1.228  0.00  0.00    -0.000 A 
ATOM      8  C   UNL     1       1.741  -1.882  -0.888  0.00  0.00    +0.009 A 
ATOM      9  C   UNL     1      -0.533  -0.662  -1.093  0.00  0.00    +0.046 A 
ATOM     10  C   UNL     1      -1.424  -1.649  -0.603  0.00  0.00    +0.044 A 
ATOM     11  C   UNL     1      -2.797  -1.342  -0.472  0.00  0.00    +0.043 A 
ATOM     12  C   UNL     1      -3.271  -0.122  -0.901  0.00  0.00    +0.115 A 
ATOM     13  N   UNL     1      -2.474   0.821  -1.415  0.00  0.00    -0.237 NA
ATOM     14  C   UNL     1      -1.154   0.535  -1.486  0.00  0.00    +0.143 A 
ATOM     15  N   UNL     1      -0.398   1.582  -2.000  0.00  0.00    -0.306 N 
ATOM     16  C   UNL     1       0.953   1.573  -2.152  0.00  0.00    +0.258 A 
ATOM     17  O   UNL     1       1.548   2.543  -2.614  0.00  0.00    -0.267 OA
ATOM     18  H   UNL     1      -0.903   2.409  -2.270  0.00  0.00    +0.170 HD
ENDBRANCH   1  10
BRANCH   1  19
ATOM     19  C   UNL     1      -1.687  -4.117  -0.088  0.00  0.00    +0.031 A 
ATOM     20  C   UNL     1      -2.621  -4.441  -1.073  0.00  0.00    +0.025 A 
ATOM     21  C   UNL     1      -3.391  -5.595  -0.963  0.00  0.00    +0.025 A 
ATOM     22  C   UNL     1      -3.198  -6.485   0.093  0.00  0.00    +0.034 A 
ATOM     23  C   UNL     1      -2.188  -6.222   1.022  0.00  0.00    +0.025 A 
ATOM     24  C   UNL     1      -1.421  -5.057   0.913  0.00  0.00    +0.025 A 
BRANCH  22  25
ATOM     25  N   UNL     1      -4.008  -7.624   0.275  0.00  0.00    -0.281 N 
ATOM     26  C   UNL     1      -4.873  -8.143  -0.673  0.00  0.00    +0.248 C 
ATOM     27  O   UNL     1      -4.996  -7.763  -1.835  0.00  0.00    -0.270 OA
ATOM     28  H   UNL     1      -3.950  -8.060   1.185  0.00  0.00    +0.155 HD
BRANCH  26  29
ATOM     29  C   UNL     1      -5.746  -9.259  -0.247  0.00  0.00    +0.042 A 
ATOM     30  C   UNL     1      -6.962  -9.422  -0.927  0.00  0.00    +0.051 A 
ATOM     31  C   UNL     1      -7.832 -10.432  -0.546  0.00  0.00    +0.127 A 
ATOM     32  C   UNL     1      -7.511 -11.293   0.492  0.00  0.00    +0.076 A 
ATOM     33  C   UNL     1      -6.293 -11.139   1.141  0.00  0.00    +0.127 A 
ATOM     34  C   UNL     1      -5.400 -10.136   0.782  0.00  0.00    +0.051 A 
ATOM     35  F   UNL     1      -5.970 -11.965   2.144  0.00  0.00    -0.205 F 
ATOM     36  F   UNL     1      -9.005 -10.565  -1.178  0.00  0.00    -0.205 F 
ENDBRANCH  26  29
ENDBRANCH  22  25
ENDBRANCH   1  19
TORSDOF 4
