REMARK  Name = L28
REMARK  5 active torsions:
REMARK  status: ('A' for Active; 'I' for Inactive)
REMARK    1  A    between atoms: C_8  and  N_16
REMARK    2  A    between atoms: N_16  and  C_17
REMARK    3  A    between atoms: C_20  and  N_23
REMARK    4  A    between atoms: C_24  and  C_26
REMARK    5  A    between atoms: C_28  and  C_32
REMARK                            x       y       z     vdW  Elec       q    Type
REMARK                         _______ _______ _______ _____ _____    ______ ____
ROOT
ATOM      1  C   UNL     1      -1.685  -4.148  -0.016  0.00  0.00    +0.031 A 
ATOM      2  C   UNL     1      -2.632  -4.412  -1.004  0.00  0.00    +0.025 A 
ATOM      3  C   UNL     1      -3.393  -5.577  -0.945  0.00  0.00    +0.025 A 
ATOM      4  C   UNL     1      -3.202  -6.492   0.090  0.00  0.00    +0.034 A 
ATOM      5  C   UNL     1      -2.208  -6.261   1.041  0.00  0.00    +0.025 A 
ATOM      6  C   UNL     1      -1.427  -5.115   0.962  0.00  0.00    +0.025 A 
ENDROOT
BRANCH   4   7
ATOM      7  N   UNL     1      -3.977  -7.647   0.256  0.00  0.00    -0.281 N 
ATOM      8  C   UNL     1      -4.866  -8.179  -0.655  0.00  0.00    +0.251 C 
ATOM      9  O   UNL     1      -5.024  -7.780  -1.808  0.00  0.00    -0.270 OA
ATOM     10  H   UNL     1      -3.861  -8.133   1.140  0.00  0.00    +0.155 HD
BRANCH   8  11
ATOM     11  C   UNL     1      -5.678  -9.335  -0.208  0.00  0.00    +0.073 A 
ATOM     12  C   UNL     1      -5.617  -9.856   1.085  0.00  0.00    +0.147 A 
ATOM     13  C   UNL     1      -6.444 -10.909   1.480  0.00  0.00    +0.091 A 
ATOM     14  C   UNL     1      -7.312 -11.476   0.532  0.00  0.00    +0.015 A 
ATOM     15  C   UNL     1      -7.378 -10.975  -0.767  0.00  0.00    +0.001 A 
ATOM     16  C   UNL     1      -6.571  -9.899  -1.130  0.00  0.00    +0.016 A 
ATOM     17  F   UNL     1      -4.757  -9.339   1.977  0.00  0.00    -0.204 F 
BRANCH  13  18
ATOM     18  C   UNL     1      -6.440 -11.402   2.897  0.00  0.00    +0.420 C 
ATOM     19  F   UNL     1      -5.591 -10.745   3.731  0.00  0.00    -0.166 F 
ATOM     20  F   UNL     1      -7.672 -11.296   3.470  0.00  0.00    -0.166 F 
ATOM     21  F   UNL     1      -6.103 -12.719   2.984  0.00  0.00    -0.166 F 
ENDBRANCH  13  18
ENDBRANCH   8  11
ENDBRANCH   4   7
BRANCH   1  22
ATOM     22  N   UNL     1      -0.881  -2.990  -0.131  0.00  0.00    -0.314 N 
ATOM     23  H   UNL     1      -0.093  -3.296  -0.695  0.00  0.00    +0.152 HD
BRANCH  22  31
ATOM     24  C   UNL     1       2.220  -1.410  -2.778  0.00  0.00    +0.001 A 
ATOM     25  C   UNL     1       3.364  -0.648  -2.611  0.00  0.00    +0.001 A 
ATOM     26  C   UNL     1       3.614  -0.076  -1.373  0.00  0.00    +0.014 A 
ATOM     27  C   UNL     1       2.746  -0.315  -0.291  0.00  0.00    +0.047 A 
ATOM     28  C   UNL     1       1.588  -1.117  -0.410  0.00  0.00    -0.000 A 
ATOM     29  C   UNL     1       1.331  -1.603  -1.708  0.00  0.00    +0.009 A 
ATOM     30  C   UNL     1       0.755  -1.368   0.819  0.00  0.00    +0.046 A 
ATOM     31  C   UNL     1      -0.367  -2.219   0.955  0.00  0.00    +0.044 A 
ATOM     32  C   UNL     1      -1.068  -2.248   2.183  0.00  0.00    +0.043 A 
ATOM     33  C   UNL     1      -0.568  -1.584   3.278  0.00  0.00    +0.115 A 
ATOM     34  N   UNL     1       0.536  -0.833   3.219  0.00  0.00    -0.237 NA
ATOM     35  C   UNL     1       1.139  -0.732   2.014  0.00  0.00    +0.143 A 
ATOM     36  N   UNL     1       2.258   0.089   2.048  0.00  0.00    -0.306 N 
ATOM     37  C   UNL     1       3.084   0.335   0.998  0.00  0.00    +0.258 A 
ATOM     38  O   UNL     1       4.062   1.061   1.114  0.00  0.00    -0.267 OA
ATOM     39  H   UNL     1       2.476   0.511   2.938  0.00  0.00    +0.170 HD
ENDBRANCH  22  31
ENDBRANCH   1  22
TORSDOF 5
