REMARK  Name = L13
REMARK  4 active torsions:
REMARK  status: ('A' for Active; 'I' for Inactive)
REMARK    1  A    between atoms: C_8  and  N_16
REMARK    2  A    between atoms: N_16  and  C_17
REMARK    3  A    between atoms: C_20  and  N_23
REMARK    4  A    between atoms: C_24  and  C_26
REMARK                            x       y       z     vdW  Elec       q    Type
REMARK                         _______ _______ _______ _____ _____    ______ ____
ROOT
ATOM      1  N   UNL     1      -0.979  -2.912  -0.120  0.00  0.00    -0.314 N 
ATOM      2  H   UNL     1      -0.499  -2.731   0.762  0.00  0.00    +0.152 HD
ENDROOT
BRANCH   1  10
ATOM      3  C   UNL     1       3.110  -1.909  -1.101  0.00  0.00    +0.001 A 
ATOM      4  C   UNL     1       3.777  -0.799  -1.599  0.00  0.00    +0.001 A 
ATOM      5  C   UNL     1       3.042   0.313  -1.982  0.00  0.00    +0.014 A 
ATOM      6  C   UNL     1       1.643   0.316  -1.845  0.00  0.00    +0.047 A 
ATOM      7  C   UNL     1       0.929  -0.788  -1.320  0.00  0.00    -0.000 A 
ATOM      8  C   UNL     1       1.711  -1.905  -0.975  0.00  0.00    +0.009 A 
ATOM      9  C   UNL     1      -0.557  -0.691  -1.166  0.00  0.00    +0.046 A 
ATOM     10  C   UNL     1      -1.438  -1.665  -0.640  0.00  0.00    +0.044 A 
ATOM     11  C   UNL     1      -2.808  -1.355  -0.501  0.00  0.00    +0.043 A 
ATOM     12  C   UNL     1      -3.284  -0.143  -0.950  0.00  0.00    +0.115 A 
ATOM     13  N   UNL     1      -2.496   0.789  -1.495  0.00  0.00    -0.237 NA
ATOM     14  C   UNL     1      -1.179   0.505  -1.580  0.00  0.00    +0.143 A 
ATOM     15  N   UNL     1      -0.431   1.540  -2.120  0.00  0.00    -0.306 N 
ATOM     16  C   UNL     1       0.920   1.535  -2.284  0.00  0.00    +0.258 A 
ATOM     17  O   UNL     1       1.510   2.492  -2.764  0.00  0.00    -0.267 OA
ATOM     18  H   UNL     1      -0.940   2.364  -2.402  0.00  0.00    +0.170 HD
ENDBRANCH   1  10
BRANCH   1  19
ATOM     19  C   UNL     1      -1.714  -4.122  -0.045  0.00  0.00    +0.031 A 
ATOM     20  C   UNL     1      -2.667  -4.472  -1.008  0.00  0.00    +0.025 A 
ATOM     21  C   UNL     1      -3.442  -5.630  -0.876  0.00  0.00    +0.025 A 
ATOM     22  C   UNL     1      -3.232  -6.492   0.194  0.00  0.00    +0.034 A 
ATOM     23  C   UNL     1      -2.188  -6.219   1.085  0.00  0.00    +0.025 A 
ATOM     24  C   UNL     1      -1.431  -5.047   0.964  0.00  0.00    +0.025 A 
BRANCH  22  25
ATOM     25  N   UNL     1      -3.985  -7.659   0.418  0.00  0.00    -0.281 N 
ATOM     26  C   UNL     1      -5.120  -8.072  -0.263  0.00  0.00    +0.251 C 
ATOM     27  O   UNL     1      -5.774  -7.413  -1.055  0.00  0.00    -0.270 OA
ATOM     28  H   UNL     1      -3.600  -8.259   1.132  0.00  0.00    +0.155 HD
BRANCH  26  29
ATOM     29  C   UNL     1      -5.510  -9.504  -0.028  0.00  0.00    +0.072 A 
ATOM     30  C   UNL     1      -4.976 -10.268   1.016  0.00  0.00    +0.138 A 
ATOM     31  C   UNL     1      -5.034 -11.655   0.947  0.00  0.00    +0.077 A 
ATOM     32  C   UNL     1      -5.699 -12.296  -0.084  0.00  0.00    +0.126 A 
ATOM     33  C   UNL     1      -6.370 -11.528  -1.025  0.00  0.00    +0.039 A 
ATOM     34  C   UNL     1      -6.283 -10.139  -1.012  0.00  0.00    +0.019 A 
ATOM     35  F   UNL     1      -7.064 -12.135  -1.994  0.00  0.00    -0.205 F 
ATOM     36  F   UNL     1      -4.385 -12.374   1.870  0.00  0.00    -0.205 F 
ENDBRANCH  26  29
ENDBRANCH  22  25
ENDBRANCH   1  19
TORSDOF 4
